
**** 05/21/21 12:16:14 ****** PSpice 17.2.0 (March 2016) ****** ID# 0 ********

 ** Profile: "SCHEMATIC1-tranz"  [ D:\Homeworks\An 2 sem 2\Tehnici CAD\Proiect-final\Final-Corect\proiect_cad-pspicefiles\schematic1\


 ****     CIRCUIT DESCRIPTION


******************************************************************************




** Creating circuit file "tranz.cir" 
** WARNING: THIS AUTOMATICALLY GENERATED FILE MAY BE OVERWRITTEN BY SUBSEQUENT SIMULATIONS

*Libraries: 
* Profile Libraries :
* Local Libraries :
* From [PSPICE NETLIST] section of D:\Homeworks\An 2 sem 2\Tehnici CAD\Projects\cdssetup\OrCAD_PSpice\17.2.0\PSpice.ini file:
.lib "D:\Homeworks\An 2 sem 2\Tehnici CAD\Proiect-final\Final-Corect\leduri.lib" 
.lib "nom.lib" 

*Analysis directives: 
.DC LIN TEMP -40 60 10 
.STEP LIN PARAM cursor 0.4 1 0.1 
.OPTIONS ADVCONV
.PROBE64 V(alias(*)) I(alias(*)) W(alias(*)) D(alias(*)) NOISE(alias(*)) 
.INC "..\SCHEMATIC1.net" 



**** INCLUDING SCHEMATIC1.net ****
* source PROIECT_CAD
R_R22         N231711 N23185 R_R22 261 TC=0,0 
.model        R_R22 RES R=1 DEV=1% TC1=0 TC2=0
R_R7         N22863 0 R_R7 1k TC=0,0 
.model        R_R7 RES R=1 DEV=1% TC1=0 TC2=0
X_U2B         N22369 SENZOR VCC -VCC SENZOR LM324
R_R21         0 N23569 R_R21 499 TC=0,0 
.model        R_R21 RES R=1 DEV=1% TC1=0 TC2=0
X_U9C         N23743 LED VCC 0 N23667 LM324
X_U3C         N22583 N22401 VCC -VCC LED LM324
R_R10         N22401 LED R_R10 4.99k TC=0,0 
.model        R_R10 RES R=1 DEV=1% TC1=0 TC2=0
R_R17         N23743 VCC R_R17 1.58k TC=0,0 
.model        R_R17 RES R=1 DEV=1% TC1=0 TC2=0
R_R25         N23003 N229810 R_R25 191 TC=0,0 
.model        R_R25 RES R=1 DEV=1% TC1=0 TC2=0
X_U1B         N22473 DESCAZUT VCC -VCC DESCAZUT LM324
V_V1         VCC 0 8
R_R6         N22863 SENZOR R_R6 1k TC=0,0 
.model        R_R6 RES R=1 DEV=1% TC1=0 TC2=0
R_R18         0 N23743 R_R18 2k TC=0,0 
.model        R_R18 RES R=1 DEV=1% TC1=0 TC2=0
R_R20         N23569 VCC R_R20 4.3k TC=0,0 
.model        R_R20 RES R=1 DEV=1% TC1=0 TC2=0
R_R4         N22473 VCC R_R4 665 TC=0,0 
.model        R_R4 RES R=1 DEV=1% TC1=0 TC2=0
R_R26         N23015 VCC R_R26 182 TC=0,0 
.model        R_R26 RES R=1 DEV=1% TC1=0 TC2=0
X_U8C         N23379 LED VCC 0 N23367 LM324
R_R14         N23379 VCC R_R14 357 TC=0,0 
.model        R_R14 RES R=1 DEV=1% TC1=0 TC2=0
R_R8         N22583 N22571  1k TC=0,0 
R_R23         N23197 VCC R_R23 4.12k TC=0,0 
.model        R_R23 RES R=1 DEV=1% TC1=0 TC2=0
R_R24         0 N23197 R_R24 1k TC=0,0 
.model        R_R24 RES R=1 DEV=1% TC1=0 TC2=0
V_V2         -VCC 0 -8
R_R13         N23367 N233530 R_R13 191 TC=0,0 
.model        R_R13 RES R=1 DEV=1% TC1=0 TC2=0
R_R15         0 N23379 R_R15 2k TC=0,0 
.model        R_R15 RES R=1 DEV=1% TC1=0 TC2=0
R_R2         N22369 VCC R_R2 12.1k TC=0,0 
.model        R_R2 RES R=1 DEV=1% TC1=0 TC2=0
R_R16         N236531 N23667 R_R16 267 TC=0,0 
.model        R_R16 RES R=1 DEV=1% TC1=0 TC2=0
R_R27         0 N23015 R_R27 2k TC=0,0 
.model        R_R27 RES R=1 DEV=1% TC1=0 TC2=0
R_R5         N22571 DESCAZUT R_R5 1k TC=0,0 
.model        R_R5 RES R=1 DEV=1% TC1=0 TC2=0
X_U6C         N23197 LED VCC 0 N23185 LM324
R_R19         N23549 N235350 R_R19 261 TC=0,0 
.model        R_R19 RES R=1 DEV=1% TC1=0 TC2=0
X_U5C         N23569 LED VCC 0 N23549 LM324
X_U7C         N23015 LED VCC 0 N23003 LM324
X_U4D         N22863 N22571 VCC -VCC N22583 LM324
R_R3         0 N22473 R_R3 2k TC=0,0 
.model        R_R3 RES R=1 DEV=1% TC1=0 TC2=0
R_R9         N22401 0 R_R9 1k TC=0,0 
.model        R_R9 RES R=1 DEV=1% TC1=0 TC2=0
D_D1         N229810 0 L_VERDE 
D_D2         N233530 0 L_ALBASTRU 
D_D3         N236531 0 L_PORTOCALIU 
D_D4         N231711 0 L_GALBEN 
D_D5         N235350 0 L_ROSU 
X_R28         0 0 N22369 POT PARAMS: SET={cursor} VALUE=100K
.PARAM  cursor=1

**** RESUMING tranz.cir ****
.END

**** 05/21/21 12:16:14 ****** PSpice 17.2.0 (March 2016) ****** ID# 0 ********

 ** Profile: "SCHEMATIC1-tranz"  [ D:\Homeworks\An 2 sem 2\Tehnici CAD\Proiect-final\Final-Corect\proiect_cad-pspicefiles\schematic1\


 ****     Diode MODEL PARAMETERS


******************************************************************************




               L_VERDE         L_ALBASTRU      L_PORTOCALIU    L_GALBEN        
          IS  394.470000E-15   16.925000E-18   10.000000E-21   10.000000E-21 
           N    4.9992          3.1189          1.7228          1.7309       
          RS    5.9117         13.701           1.8616          4.3078       


               L_ROSU          X_U2B.dx        X_U2B.dy        X_U9C.dx        
          IS   10.000000E-21  800.000000E-18  800.000000E-18  800.000000E-18 
           N    1.737                                                        
          RS    4.2925          1               1.000000E-03    1            
         CJO                                   10.000000E-12                 


               X_U9C.dy        X_U3C.dx        X_U3C.dy        X_U1B.dx        
          IS  800.000000E-18  800.000000E-18  800.000000E-18  800.000000E-18 
          RS    1.000000E-03    1               1.000000E-03    1            
         CJO   10.000000E-12                   10.000000E-12                 


               X_U1B.dy        X_U8C.dx        X_U8C.dy        X_U6C.dx        
          IS  800.000000E-18  800.000000E-18  800.000000E-18  800.000000E-18 
          RS    1.000000E-03    1               1.000000E-03    1            
         CJO   10.000000E-12                   10.000000E-12                 


               X_U6C.dy        X_U5C.dx        X_U5C.dy        X_U7C.dx        
          IS  800.000000E-18  800.000000E-18  800.000000E-18  800.000000E-18 
          RS    1.000000E-03    1               1.000000E-03    1            
         CJO   10.000000E-12                   10.000000E-12                 


               X_U7C.dy        X_U4D.dx        X_U4D.dy        
          IS  800.000000E-18  800.000000E-18  800.000000E-18 
          RS    1.000000E-03    1               1.000000E-03 
         CJO   10.000000E-12                   10.000000E-12 


**** 05/21/21 12:16:14 ****** PSpice 17.2.0 (March 2016) ****** ID# 0 ********

 ** Profile: "SCHEMATIC1-tranz"  [ D:\Homeworks\An 2 sem 2\Tehnici CAD\Proiect-final\Final-Corect\proiect_cad-pspicefiles\schematic1\


 ****     BJT MODEL PARAMETERS


******************************************************************************




               X_U2B.qx        X_U9C.qx        X_U3C.qx        X_U1B.qx        
               PNP             PNP             PNP             PNP             
       LEVEL    1               1               1               1            
          IS  800.000000E-18  800.000000E-18  800.000000E-18  800.000000E-18 
          BF  166.7           166.7           166.7           166.7          
          NF    1               1               1               1            
          BR    1               1               1               1            
          NR    1               1               1               1            
         ISS    0               0               0               0            
          RE    0               0               0               0            
          RC    0               0               0               0            
         CJE    0               0               0               0            
         VJE     .75             .75             .75             .75         
         CJC    0               0               0               0            
         VJC     .75             .75             .75             .75         
         MJC     .33             .33             .33             .33         
        XCJC    1               1               1               1            
         CJS    0               0               0               0            
         VJS     .75             .75             .75             .75         
          KF    0               0               0               0            
          AF    1               1               1               1            
          CN    2.2             2.2             2.2             2.2          
           D     .52             .52             .52             .52         


               X_U8C.qx        X_U6C.qx        X_U5C.qx        X_U7C.qx        
               PNP             PNP             PNP             PNP             
       LEVEL    1               1               1               1            
          IS  800.000000E-18  800.000000E-18  800.000000E-18  800.000000E-18 
          BF  166.7           166.7           166.7           166.7          
          NF    1               1               1               1            
          BR    1               1               1               1            
          NR    1               1               1               1            
         ISS    0               0               0               0            
          RE    0               0               0               0            
          RC    0               0               0               0            
         CJE    0               0               0               0            
         VJE     .75             .75             .75             .75         
         CJC    0               0               0               0            
         VJC     .75             .75             .75             .75         
         MJC     .33             .33             .33             .33         
        XCJC    1               1               1               1            
         CJS    0               0               0               0            
         VJS     .75             .75             .75             .75         
          KF    0               0               0               0            
          AF    1               1               1               1            
          CN    2.2             2.2             2.2             2.2          
           D     .52             .52             .52             .52         


               X_U4D.qx        
               PNP             
       LEVEL    1            
          IS  800.000000E-18 
          BF  166.7          
          NF    1            
          BR    1            
          NR    1            
         ISS    0            
          RE    0            
          RC    0            
         CJE    0            
         VJE     .75         
         CJC    0            
         VJC     .75         
         MJC     .33         
        XCJC    1            
         CJS    0            
         VJS     .75         
          KF    0            
          AF    1            
          CN    2.2          
           D     .52         


**** 05/21/21 12:16:14 ****** PSpice 17.2.0 (March 2016) ****** ID# 0 ********

 ** Profile: "SCHEMATIC1-tranz"  [ D:\Homeworks\An 2 sem 2\Tehnici CAD\Proiect-final\Final-Corect\proiect_cad-pspicefiles\schematic1\


 ****     Resistor MODEL PARAMETERS


******************************************************************************




               R_R22           R_R7            R_R21           R_R10           
           R    1               1               1               1            


               R_R17           R_R25           R_R6            R_R18           
           R    1               1               1               1            


               R_R20           R_R4            R_R26           R_R14           
           R    1               1               1               1            


               R_R23           R_R24           R_R13           R_R15           
           R    1               1               1               1            


               R_R2            R_R16           R_R27           R_R5            
           R    1               1               1               1            


               R_R19           R_R3            R_R9            
           R    1               1               1            


**** 05/21/21 12:16:14 ****** PSpice 17.2.0 (March 2016) ****** ID# 0 ********

 ** Profile: "SCHEMATIC1-tranz"  [ D:\Homeworks\An 2 sem 2\Tehnici CAD\Proiect-final\Final-Corect\proiect_cad-pspicefiles\schematic1\


 ****     Current Controlled Switch MODEL PARAMETERS


******************************************************************************




               X_U2B.sw2       X_U2B.sw1       X_U2B.sw3       X_U2B.sw4       
         RON    1               1               1               1            
        ROFF   10.000000E+06   10.000000E+06   10.000000E+06   10.000000E+06 
         ION    0              -1.000000E-06   -1.000000E-06    0            
        IOFF   -1.000000E-06    0               0              -1.000000E-06 


               X_U9C.sw2       X_U9C.sw1       X_U9C.sw3       X_U9C.sw4       
         RON    1               1               1               1            
        ROFF   10.000000E+06   10.000000E+06   10.000000E+06   10.000000E+06 
         ION    0              -1.000000E-06   -1.000000E-06    0            
        IOFF   -1.000000E-06    0               0              -1.000000E-06 


               X_U3C.sw2       X_U3C.sw1       X_U3C.sw3       X_U3C.sw4       
         RON    1               1               1               1            
        ROFF   10.000000E+06   10.000000E+06   10.000000E+06   10.000000E+06 
         ION    0              -1.000000E-06   -1.000000E-06    0            
        IOFF   -1.000000E-06    0               0              -1.000000E-06 


               X_U1B.sw2       X_U1B.sw1       X_U1B.sw3       X_U1B.sw4       
         RON    1               1               1               1            
        ROFF   10.000000E+06   10.000000E+06   10.000000E+06   10.000000E+06 
         ION    0              -1.000000E-06   -1.000000E-06    0            
        IOFF   -1.000000E-06    0               0              -1.000000E-06 


               X_U8C.sw2       X_U8C.sw1       X_U8C.sw3       X_U8C.sw4       
         RON    1               1               1               1            
        ROFF   10.000000E+06   10.000000E+06   10.000000E+06   10.000000E+06 
         ION    0              -1.000000E-06   -1.000000E-06    0            
        IOFF   -1.000000E-06    0               0              -1.000000E-06 


               X_U6C.sw2       X_U6C.sw1       X_U6C.sw3       X_U6C.sw4       
         RON    1               1               1               1            
        ROFF   10.000000E+06   10.000000E+06   10.000000E+06   10.000000E+06 
         ION    0              -1.000000E-06   -1.000000E-06    0            
        IOFF   -1.000000E-06    0               0              -1.000000E-06 


               X_U5C.sw2       X_U5C.sw1       X_U5C.sw3       X_U5C.sw4       
         RON    1               1               1               1            
        ROFF   10.000000E+06   10.000000E+06   10.000000E+06   10.000000E+06 
         ION    0              -1.000000E-06   -1.000000E-06    0            
        IOFF   -1.000000E-06    0               0              -1.000000E-06 


               X_U7C.sw2       X_U7C.sw1       X_U7C.sw3       X_U7C.sw4       
         RON    1               1               1               1            
        ROFF   10.000000E+06   10.000000E+06   10.000000E+06   10.000000E+06 
         ION    0              -1.000000E-06   -1.000000E-06    0            
        IOFF   -1.000000E-06    0               0              -1.000000E-06 


               X_U4D.sw2       X_U4D.sw1       X_U4D.sw3       X_U4D.sw4       
         RON    1               1               1               1            
        ROFF   10.000000E+06   10.000000E+06   10.000000E+06   10.000000E+06 
         ION    0              -1.000000E-06   -1.000000E-06    0            
        IOFF   -1.000000E-06    0               0              -1.000000E-06 



          JOB CONCLUDED

**** 05/21/21 12:16:14 ****** PSpice 17.2.0 (March 2016) ****** ID# 0 ********

 ** Profile: "SCHEMATIC1-tranz"  [ D:\Homeworks\An 2 sem 2\Tehnici CAD\Proiect-final\Final-Corect\proiect_cad-pspicefiles\schematic1\


 ****     JOB STATISTICS SUMMARY

 ****     CURRENT STEP                     PARAM CURSOR =    1     


******************************************************************************



  Total job time (using Solver 1)   =         .17
