
**** 05/21/21 13:13:59 ****** PSpice 17.2.0 (March 2016) ****** ID# 0 ********

 ** Profile: "SCHEMATIC1-dc"  [ D:\Homeworks\An 2 sem 2\Tehnici CAD\Proiect-final\Final-Corect\proiect_cad-pspicefiles\schematic1\dc.


 ****     CIRCUIT DESCRIPTION


******************************************************************************




** Creating circuit file "dc.cir" 
** WARNING: THIS AUTOMATICALLY GENERATED FILE MAY BE OVERWRITTEN BY SUBSEQUENT SIMULATIONS

*Libraries: 
* Profile Libraries :
* Local Libraries :
* From [PSPICE NETLIST] section of D:\Homeworks\An 2 sem 2\Tehnici CAD\Projects\cdssetup\OrCAD_PSpice\17.2.0\PSpice.ini file:
.lib "D:\Homeworks\An 2 sem 2\Tehnici CAD\Proiect-final\Final-Corect\leduri.lib" 
.lib "nom.lib" 

*Analysis directives: 
.TRAN  0 1000ns 0 
.MC 10 TRAN v([LED]) YMAX OUTPUT ALL SEED=200 
.OPTIONS ADVCONV
.PROBE64 V(alias(*)) I(alias(*)) W(alias(*)) D(alias(*)) NOISE(alias(*)) 
.INC "..\SCHEMATIC1.net" 



**** INCLUDING SCHEMATIC1.net ****
* source PROIECT_CAD
R_R22         N23185 N231710 R_R22 261 TC=0,0 
.model        R_R22 RES R=1 DEV=1% TC1=0 TC2=0
R_R7         N22863 0 R_R7 1k TC=0,0 
.model        R_R7 RES R=1 DEV=1% TC1=0 TC2=0
X_U2B         N22369 SENZOR VCC -VCC SENZOR LM324
R_R21         0 N23569 R_R21 499 TC=0,0 
.model        R_R21 RES R=1 DEV=1% TC1=0 TC2=0
X_U9C         N23743 LED VCC 0 N23667 LM324
X_U3C         N22583 N22401 VCC -VCC LED LM324
R_R10         N22401 LED R_R10 4.99k TC=0,0 
.model        R_R10 RES R=1 DEV=1% TC1=0 TC2=0
R_R17         N23743 VCC R_R17 1.58k TC=0,0 
.model        R_R17 RES R=1 DEV=1% TC1=0 TC2=0
R_R25         N229811 N23003 R_R25 191 TC=0,0 
.model        R_R25 RES R=1 DEV=1% TC1=0 TC2=0
X_U1B         N22473 DESCAZUT VCC -VCC DESCAZUT LM324
V_V1         VCC 0 8
R_R6         N22863 SENZOR R_R6 1k TC=0,0 
.model        R_R6 RES R=1 DEV=1% TC1=0 TC2=0
R_R18         0 N23743 R_R18 2k TC=0,0 
.model        R_R18 RES R=1 DEV=1% TC1=0 TC2=0
R_R20         N23569 VCC R_R20 4.3k TC=0,0 
.model        R_R20 RES R=1 DEV=1% TC1=0 TC2=0
R_R4         N22473 VCC R_R4 665 TC=0,0 
.model        R_R4 RES R=1 DEV=1% TC1=0 TC2=0
R_R26         N23015 VCC R_R26 182 TC=0,0 
.model        R_R26 RES R=1 DEV=1% TC1=0 TC2=0
X_U8C         N23379 LED VCC 0 N23367 LM324
R_R14         N23379 VCC R_R14 357 TC=0,0 
.model        R_R14 RES R=1 DEV=1% TC1=0 TC2=0
R_R8         N22583 N22571  1k TC=0,0 
R_R23         N23197 VCC R_R23 4.12k TC=0,0 
.model        R_R23 RES R=1 DEV=1% TC1=0 TC2=0
R_R24         0 N23197 R_R24 1k TC=0,0 
.model        R_R24 RES R=1 DEV=1% TC1=0 TC2=0
V_V2         -VCC 0 -8
R_R13         N23367 N233530 R_R13 191 TC=0,0 
.model        R_R13 RES R=1 DEV=1% TC1=0 TC2=0
R_R15         0 N23379 R_R15 2k TC=0,0 
.model        R_R15 RES R=1 DEV=1% TC1=0 TC2=0
R_R2         N22369 VCC R_R2 12.1k TC=0,0 
.model        R_R2 RES R=1 DEV=1% TC1=0 TC2=0
R_R16         N23667 N236530 R_R16 267 TC=0,0 
.model        R_R16 RES R=1 DEV=1% TC1=0 TC2=0
R_R27         0 N23015 R_R27 2k TC=0,0 
.model        R_R27 RES R=1 DEV=1% TC1=0 TC2=0
R_R5         N22571 DESCAZUT R_R5 1k TC=0,0 
.model        R_R5 RES R=1 DEV=1% TC1=0 TC2=0
X_U6C         N23197 LED VCC 0 N23185 LM324
R_R19         N23549 N235350 R_R19 261 TC=0,0 
.model        R_R19 RES R=1 DEV=1% TC1=0 TC2=0
X_U5C         N23569 LED VCC 0 N23549 LM324
X_U7C         N23015 LED VCC 0 N23003 LM324
X_U4D         N22863 N22571 VCC -VCC N22583 LM324
R_R3         0 N22473 R_R3 2k TC=0,0 
.model        R_R3 RES R=1 DEV=1% TC1=0 TC2=0
R_R9         N22401 0 R_R9 1k TC=0,0 
.model        R_R9 RES R=1 DEV=1% TC1=0 TC2=0
D_D1         N229811 0 L_VERDE 
D_D2         N233530 0 L_ALBASTRU 
D_D3         N236530 0 L_PORTOCALIU 
D_D4         N231710 0 L_GALBEN 
D_D5         N235350 0 L_ROSU 
X_R28         0 0 N22369 POT PARAMS: SET={cursor} VALUE=100K
.PARAM  cursor=0.40

**** RESUMING dc.cir ****
.END

**** 05/21/21 13:13:59 ****** PSpice 17.2.0 (March 2016) ****** ID# 0 ********

 ** Profile: "SCHEMATIC1-dc"  [ D:\Homeworks\An 2 sem 2\Tehnici CAD\Proiect-final\Final-Corect\proiect_cad-pspicefiles\schematic1\dc.


 ****     Diode MODEL PARAMETERS


******************************************************************************




               L_VERDE         L_ALBASTRU      L_PORTOCALIU    L_GALBEN        
          IS  394.470000E-15   16.925000E-18   10.000000E-21   10.000000E-21 
           N    4.9992          3.1189          1.7228          1.7309       
          RS    5.9117         13.701           1.8616          4.3078       


               L_ROSU          X_U2B.dx        X_U2B.dy        X_U9C.dx        
          IS   10.000000E-21  800.000000E-18  800.000000E-18  800.000000E-18 
           N    1.737                                                        
          RS    4.2925          1               1.000000E-03    1            
         CJO                                   10.000000E-12                 


               X_U9C.dy        X_U3C.dx        X_U3C.dy        X_U1B.dx        
          IS  800.000000E-18  800.000000E-18  800.000000E-18  800.000000E-18 
          RS    1.000000E-03    1               1.000000E-03    1            
         CJO   10.000000E-12                   10.000000E-12                 


               X_U1B.dy        X_U8C.dx        X_U8C.dy        X_U6C.dx        
          IS  800.000000E-18  800.000000E-18  800.000000E-18  800.000000E-18 
          RS    1.000000E-03    1               1.000000E-03    1            
         CJO   10.000000E-12                   10.000000E-12                 


               X_U6C.dy        X_U5C.dx        X_U5C.dy        X_U7C.dx        
          IS  800.000000E-18  800.000000E-18  800.000000E-18  800.000000E-18 
          RS    1.000000E-03    1               1.000000E-03    1            
         CJO   10.000000E-12                   10.000000E-12                 


               X_U7C.dy        X_U4D.dx        X_U4D.dy        
          IS  800.000000E-18  800.000000E-18  800.000000E-18 
          RS    1.000000E-03    1               1.000000E-03 
         CJO   10.000000E-12                   10.000000E-12 


**** 05/21/21 13:13:59 ****** PSpice 17.2.0 (March 2016) ****** ID# 0 ********

 ** Profile: "SCHEMATIC1-dc"  [ D:\Homeworks\An 2 sem 2\Tehnici CAD\Proiect-final\Final-Corect\proiect_cad-pspicefiles\schematic1\dc.


 ****     BJT MODEL PARAMETERS


******************************************************************************




               X_U2B.qx        X_U9C.qx        X_U3C.qx        X_U1B.qx        
               PNP             PNP             PNP             PNP             
       LEVEL    1               1               1               1            
          IS  800.000000E-18  800.000000E-18  800.000000E-18  800.000000E-18 
          BF  166.7           166.7           166.7           166.7          
          NF    1               1               1               1            
          BR    1               1               1               1            
          NR    1               1               1               1            
         ISS    0               0               0               0            
          RE    0               0               0               0            
          RC    0               0               0               0            
         CJE    0               0               0               0            
         VJE     .75             .75             .75             .75         
         CJC    0               0               0               0            
         VJC     .75             .75             .75             .75         
         MJC     .33             .33             .33             .33         
        XCJC    1               1               1               1            
         CJS    0               0               0               0            
         VJS     .75             .75             .75             .75         
          KF    0               0               0               0            
          AF    1               1               1               1            
          CN    2.2             2.2             2.2             2.2          
           D     .52             .52             .52             .52         


               X_U8C.qx        X_U6C.qx        X_U5C.qx        X_U7C.qx        
               PNP             PNP             PNP             PNP             
       LEVEL    1               1               1               1            
          IS  800.000000E-18  800.000000E-18  800.000000E-18  800.000000E-18 
          BF  166.7           166.7           166.7           166.7          
          NF    1               1               1               1            
          BR    1               1               1               1            
          NR    1               1               1               1            
         ISS    0               0               0               0            
          RE    0               0               0               0            
          RC    0               0               0               0            
         CJE    0               0               0               0            
         VJE     .75             .75             .75             .75         
         CJC    0               0               0               0            
         VJC     .75             .75             .75             .75         
         MJC     .33             .33             .33             .33         
        XCJC    1               1               1               1            
         CJS    0               0               0               0            
         VJS     .75             .75             .75             .75         
          KF    0               0               0               0            
          AF    1               1               1               1            
          CN    2.2             2.2             2.2             2.2          
           D     .52             .52             .52             .52         


               X_U4D.qx        
               PNP             
       LEVEL    1            
          IS  800.000000E-18 
          BF  166.7          
          NF    1            
          BR    1            
          NR    1            
         ISS    0            
          RE    0            
          RC    0            
         CJE    0            
         VJE     .75         
         CJC    0            
         VJC     .75         
         MJC     .33         
        XCJC    1            
         CJS    0            
         VJS     .75         
          KF    0            
          AF    1            
          CN    2.2          
           D     .52         


**** 05/21/21 13:13:59 ****** PSpice 17.2.0 (March 2016) ****** ID# 0 ********

 ** Profile: "SCHEMATIC1-dc"  [ D:\Homeworks\An 2 sem 2\Tehnici CAD\Proiect-final\Final-Corect\proiect_cad-pspicefiles\schematic1\dc.


 ****     Resistor MODEL PARAMETERS


******************************************************************************




               R_R22           R_R7            R_R21           R_R10           
           R    1               1               1               1            


               R_R17           R_R25           R_R6            R_R18           
           R    1               1               1               1            


               R_R20           R_R4            R_R26           R_R14           
           R    1               1               1               1            


               R_R23           R_R24           R_R13           R_R15           
           R    1               1               1               1            


               R_R2            R_R16           R_R27           R_R5            
           R    1               1               1               1            


               R_R19           R_R3            R_R9            
           R    1               1               1            


**** 05/21/21 13:13:59 ****** PSpice 17.2.0 (March 2016) ****** ID# 0 ********

 ** Profile: "SCHEMATIC1-dc"  [ D:\Homeworks\An 2 sem 2\Tehnici CAD\Proiect-final\Final-Corect\proiect_cad-pspicefiles\schematic1\dc.


 ****     Current Controlled Switch MODEL PARAMETERS


******************************************************************************




               X_U2B.sw2       X_U2B.sw1       X_U2B.sw3       X_U2B.sw4       
         RON    1               1               1               1            
        ROFF   10.000000E+06   10.000000E+06   10.000000E+06   10.000000E+06 
         ION    0              -1.000000E-06   -1.000000E-06    0            
        IOFF   -1.000000E-06    0               0              -1.000000E-06 


               X_U9C.sw2       X_U9C.sw1       X_U9C.sw3       X_U9C.sw4       
         RON    1               1               1               1            
        ROFF   10.000000E+06   10.000000E+06   10.000000E+06   10.000000E+06 
         ION    0              -1.000000E-06   -1.000000E-06    0            
        IOFF   -1.000000E-06    0               0              -1.000000E-06 


               X_U3C.sw2       X_U3C.sw1       X_U3C.sw3       X_U3C.sw4       
         RON    1               1               1               1            
        ROFF   10.000000E+06   10.000000E+06   10.000000E+06   10.000000E+06 
         ION    0              -1.000000E-06   -1.000000E-06    0            
        IOFF   -1.000000E-06    0               0              -1.000000E-06 


               X_U1B.sw2       X_U1B.sw1       X_U1B.sw3       X_U1B.sw4       
         RON    1               1               1               1            
        ROFF   10.000000E+06   10.000000E+06   10.000000E+06   10.000000E+06 
         ION    0              -1.000000E-06   -1.000000E-06    0            
        IOFF   -1.000000E-06    0               0              -1.000000E-06 


               X_U8C.sw2       X_U8C.sw1       X_U8C.sw3       X_U8C.sw4       
         RON    1               1               1               1            
        ROFF   10.000000E+06   10.000000E+06   10.000000E+06   10.000000E+06 
         ION    0              -1.000000E-06   -1.000000E-06    0            
        IOFF   -1.000000E-06    0               0              -1.000000E-06 


               X_U6C.sw2       X_U6C.sw1       X_U6C.sw3       X_U6C.sw4       
         RON    1               1               1               1            
        ROFF   10.000000E+06   10.000000E+06   10.000000E+06   10.000000E+06 
         ION    0              -1.000000E-06   -1.000000E-06    0            
        IOFF   -1.000000E-06    0               0              -1.000000E-06 


               X_U5C.sw2       X_U5C.sw1       X_U5C.sw3       X_U5C.sw4       
         RON    1               1               1               1            
        ROFF   10.000000E+06   10.000000E+06   10.000000E+06   10.000000E+06 
         ION    0              -1.000000E-06   -1.000000E-06    0            
        IOFF   -1.000000E-06    0               0              -1.000000E-06 


               X_U7C.sw2       X_U7C.sw1       X_U7C.sw3       X_U7C.sw4       
         RON    1               1               1               1            
        ROFF   10.000000E+06   10.000000E+06   10.000000E+06   10.000000E+06 
         ION    0              -1.000000E-06   -1.000000E-06    0            
        IOFF   -1.000000E-06    0               0              -1.000000E-06 


               X_U4D.sw2       X_U4D.sw1       X_U4D.sw3       X_U4D.sw4       
         RON    1               1               1               1            
        ROFF   10.000000E+06   10.000000E+06   10.000000E+06   10.000000E+06 
         ION    0              -1.000000E-06   -1.000000E-06    0            
        IOFF   -1.000000E-06    0               0              -1.000000E-06 


**** 05/21/21 13:13:59 ****** PSpice 17.2.0 (March 2016) ****** ID# 0 ********

 ** Profile: "SCHEMATIC1-dc"  [ D:\Homeworks\An 2 sem 2\Tehnici CAD\Proiect-final\Final-Corect\proiect_cad-pspicefiles\schematic1\dc.


 ****     INITIAL TRANSIENT SOLUTION       TEMPERATURE =   27.000 DEG C

                      MONTE CARLO NOMINAL

******************************************************************************



 NODE   VOLTAGE     NODE   VOLTAGE     NODE   VOLTAGE     NODE   VOLTAGE


(  LED)     .8145  (  VCC)    8.0000  ( -VCC)   -8.0000  (N22369)    6.1424     

(N22401)     .1360 (N22473)    6.0038 (N22571)    3.0689 (N22583)     .1363     

(N22863)    3.0701 (N23003)    7.2976 (N23015)    7.3327 (N23185)    7.2982     

(N23197)    1.5625 (N23367)    7.2962 (N23379)    6.7883 (N23549)    7.2982     

(N23569)     .8319 (N23667)    7.2985 (N23743)    4.4693 (SENZOR)    6.1402     

(N229811)    3.3158                   (N231710)    1.9753                       

(N233530)    3.1075                   (N235350)    1.9814                       

(N236530)    1.9156                   (X_U1B.6)    -.0012                       

(X_U1B.7)    6.1482                   (X_U1B.8)    6.1482                       

(X_U1B.9)    0.0000                   (X_U1B.a)    7.9971                       

(X_U1B.b)    -.0029                   (X_U2B.6)    -.0012                       

(X_U2B.7)    6.2937                   (X_U2B.8)    6.2937                       

(X_U2B.9)    0.0000                   (X_U2B.a)    7.9969                       

(X_U2B.b)    -.0031                   (X_U3C.6)-155.5E-06                       

(X_U3C.7)     .8212                   (X_U3C.8)     .8212                       

(X_U3C.9)    0.0000                   (X_U3C.a)    7.9999                       

(X_U3C.b)-136.3E-06                   (X_U4D.6) 16.33E-06                       

(X_U4D.7)    -.0104                   (X_U4D.8)    -.0104                       

(X_U4D.9)    0.0000                   (X_U4D.a)     .0029                       

(X_U4D.b)   -7.9971                   (X_U5C.6)    -.3425                       

(X_U5C.7)    9.3265                   (X_U5C.8)    9.3265                       

(X_U5C.9)    0.0000                   (X_U5C.a)    7.9594                       

(X_U5C.b)    -.0406                   (X_U6C.6)   -1.5343                       

(X_U6C.7)    9.3288                   (X_U6C.8)    9.3288                       

(X_U6C.9)    0.0000                   (X_U6C.a)    7.9594                       

(X_U6C.b)    -.0406                   (X_U7C.6)   -1.5343                       

(X_U7C.7)    9.3282                   (X_U7C.8)    9.3282                       

(X_U7C.9)    0.0000                   (X_U7C.a)    7.9594                       

(X_U7C.b)    -.0406                   (X_U8C.6)   -1.5343                       

(X_U8C.7)    9.3268                   (X_U8C.8)    9.3268                       

(X_U8C.9)    0.0000                   (X_U8C.a)    7.9594                       

(X_U8C.b)    -.0406                   (X_U9C.6)   -1.5343                       

(X_U9C.7)    9.3291                   (X_U9C.8)    9.3291                       

(X_U9C.9)    0.0000                   (X_U9C.a)    7.9594                       

(X_U9C.b)    -.0406                   (DESCAZUT)    6.0016                      

(X_U1B.10)    6.6091                  (X_U1B.11)   -7.9605                      

(X_U1B.12)   -7.9626                  (X_U1B.13)    6.5953                      

(X_U1B.14)    6.5960                  (X_U1B.53)    6.5000                      

(X_U1B.54)   -7.1780                  (X_U1B.90)    2.9326                      

(X_U1B.91)   40.0000                  (X_U1B.92)  -40.0000                      

(X_U1B.99)    0.0000                  (X_U2B.10)    6.7477                      

(X_U2B.11)   -7.9605                  (X_U2B.12)   -7.9627                      

(X_U2B.13)    6.7339                  (X_U2B.14)    6.7347                      

(X_U2B.53)    6.5000                  (X_U2B.54)   -7.1780                      

(X_U2B.90)    3.0700                  (X_U2B.91)   40.0000                      

(X_U2B.92)  -40.0000                  (X_U2B.99)    0.0000                      

(X_U3C.10)     .7438                  (X_U3C.11)   -7.9602                      

(X_U3C.12)   -7.9605                  (X_U3C.13)     .7299                      

(X_U3C.14)     .7300                  (X_U3C.53)    6.5000                      

(X_U3C.54)   -7.1780                  (X_U3C.90)     .1355                      

(X_U3C.91)   40.0000                  (X_U3C.92)  -40.0000                      

(X_U3C.99)    0.0000                  (X_U4D.10)    3.6766                      

(X_U4D.11)   -7.9604                  (X_U4D.12)   -7.9615                      

(X_U4D.13)    3.6627                  (X_U4D.14)    3.6631                      

(X_U4D.53)    6.5000                  (X_U4D.54)   -7.1780                      

(X_U4D.90)   -2.9327                  (X_U4D.91)   40.0000                      

(X_U4D.92)  -40.0000                  (X_U4D.99)    0.0000                      

(X_U5C.10)    1.4309                  (X_U5C.11)     .0490                      

(X_U5C.12)     .0316                  (X_U5C.13)    1.4137                      

(X_U5C.14)    1.4198                  (X_U5C.53)    6.5000                      

(X_U5C.54)     .8220                  (X_U5C.90)   40.5670                      

(X_U5C.91)   40.0000                  (X_U5C.92)  -40.0000                      

(X_U5C.99)    4.0000                  (X_U6C.10)    1.4548                      

(X_U6C.11)     .0806                  (X_U6C.12) 16.01E-09                      

(X_U6C.13)    1.4266                  (X_U6C.14)    1.4548                      

(X_U6C.53)    6.5000                  (X_U6C.54)     .8220                      

(X_U6C.90)   40.6120                  (X_U6C.91)   40.0000                      

(X_U6C.92)  -40.0000                  (X_U6C.99)    4.0000                      

(X_U7C.10)    1.4548                  (X_U7C.11)     .0806                      

(X_U7C.12) 46.62E-09                  (X_U7C.13)    1.4266                      

(X_U7C.14)    1.4548                  (X_U7C.53)    6.5000                      

(X_U7C.54)     .8220                  (X_U7C.90)   40.6120                      

(X_U7C.91)   40.0000                  (X_U7C.92)  -40.0000                      

(X_U7C.99)    4.0000                  (X_U8C.10)    1.4548                      

(X_U8C.11)     .0806                  (X_U8C.12) 43.73E-09                      

(X_U8C.13)    1.4266                  (X_U8C.14)    1.4548                      

(X_U8C.53)    6.5000                  (X_U8C.54)     .8220                      

(X_U8C.90)   40.6120                  (X_U8C.91)   40.0000                      

(X_U8C.92)  -40.0000                  (X_U8C.99)    4.0000                      

(X_U9C.10)    1.4548                  (X_U9C.11)     .0806                      

(X_U9C.12) 31.43E-09                  (X_U9C.13)    1.4266                      

(X_U9C.14)    1.4548                  (X_U9C.53)    6.5000                      

(X_U9C.54)     .8220                  (X_U9C.90)   40.6120                      

(X_U9C.91)   40.0000                  (X_U9C.92)  -40.0000                      

(X_U9C.99)    4.0000                  




    VOLTAGE SOURCE CURRENTS
    NAME         CURRENT

    V_V1        -1.371E-01
    V_V2         1.004E-02
    X_U2B.vb    -1.201E-08
    X_U2B.vc     3.606E-13
    X_U2B.ve     1.430E-11
    X_U2B.vlim   3.070E-03
    X_U2B.vlp   -3.693E-11
    X_U2B.vln   -4.307E-11
    X_U9C.vb    -1.534E-05
    X_U9C.vc    -2.045E-02
    X_U9C.ve     6.365E-12
    X_U9C.vlim   4.061E-02
    X_U9C.vlp    1.524E-05
    X_U9C.vln   -8.062E-11
    X_U3C.vb    -1.555E-09
    X_U3C.vc     5.686E-12
    X_U3C.ve     8.976E-12
    X_U3C.vlim   1.355E-04
    X_U3C.vlp   -3.987E-11
    X_U3C.vln   -4.014E-11
    X_U1B.vb    -1.173E-08
    X_U1B.vc     4.992E-13
    X_U1B.ve     1.416E-11
    X_U1B.vlim   2.933E-03
    X_U1B.vlp   -3.707E-11
    X_U1B.vln   -4.294E-11
    X_U8C.vb    -1.534E-05
    X_U8C.vc    -1.868E-02
    X_U8C.ve     6.362E-12
    X_U8C.vlim   4.061E-02
    X_U8C.vlp    1.533E-05
    X_U8C.vln   -8.062E-11
    X_U6C.vb    -1.534E-05
    X_U6C.vc    -2.022E-02
    X_U6C.ve     6.365E-12
    X_U6C.vlim   4.061E-02
    X_U6C.vlp    1.525E-05
    X_U6C.vln   -8.062E-11
    X_U5C.vb    -3.425E-06
    X_U5C.vc    -2.020E-02
    X_U5C.ve     6.364E-12
    X_U5C.vlim   4.057E-02
    X_U5C.vlp    2.611E-06
    X_U5C.vln   -8.057E-11
    X_U7C.vb    -1.534E-05
    X_U7C.vc    -1.976E-02
    X_U7C.ve     6.364E-12
    X_U7C.vlim   4.061E-02
    X_U7C.vlp    1.528E-05
    X_U7C.vln   -8.062E-11
    X_U4D.vb     1.633E-10
    X_U4D.vc     6.365E-12
    X_U4D.ve     8.298E-12
    X_U4D.vlim  -2.933E-03
    X_U4D.vlp   -4.293E-11
    X_U4D.vln   -3.707E-11

    TOTAL POWER DISSIPATION   1.32E+00  WATTS


**** 05/21/21 13:13:59 ****** PSpice 17.2.0 (March 2016) ****** ID# 0 ********

 ** Profile: "SCHEMATIC1-dc"  [ D:\Homeworks\An 2 sem 2\Tehnici CAD\Proiect-final\Final-Corect\proiect_cad-pspicefiles\schematic1\dc.


 ****     INITIAL TRANSIENT SOLUTION       TEMPERATURE =   27.000 DEG C

                      MONTE CARLO PASS 2

******************************************************************************



 NODE   VOLTAGE     NODE   VOLTAGE     NODE   VOLTAGE     NODE   VOLTAGE


(  LED)     .5289  (  VCC)    8.0000  ( -VCC)   -8.0000  (N22369)    6.1477     

(N22401)     .0880 (N22473)    6.0221 (N22571)    3.0609 (N22583)     .0882     

(N22863)    3.0620 (N23003)    7.2975 (N23015)    7.3307 (N23185)    7.2984     

(N23197)    1.5652 (N23367)    7.2960 (N23379)    6.7777 (N23549)    7.2980     

(N23569)     .8326 (N23667)    7.2986 (N23743)    4.4737 (SENZOR)    6.1454     

(N229811)    3.3165                   (N231710)    1.9744                       

(N233530)    3.1097                   (N235350)    1.9826                       

(N236530)    1.9152                   (X_U1B.6)    -.0012                       

(X_U1B.7)    6.1685                   (X_U1B.8)    6.1685                       

(X_U1B.9)    0.0000                   (X_U1B.a)    7.9970                       

(X_U1B.b)    -.0030                   (X_U2B.6)    -.0012                       

(X_U2B.7)    6.2983                   (X_U2B.8)    6.2983                       

(X_U2B.9)    0.0000                   (X_U2B.a)    7.9969                       

(X_U2B.b)    -.0031                   (X_U3C.6)-100.9E-06                       

(X_U3C.7)     .5332                   (X_U3C.8)     .5332                       

(X_U3C.9)    0.0000                   (X_U3C.a)    7.9999                       

(X_U3C.b)-87.90E-06                   (X_U4D.6) 25.96E-06                       

(X_U4D.7)    -.0604                   (X_U4D.8)    -.0604                       

(X_U4D.9)    0.0000                   (X_U4D.a)     .0030                       

(X_U4D.b)   -7.9970                   (X_U5C.6)   -1.5380                       

(X_U5C.7)    9.3286                   (X_U5C.8)    9.3286                       

(X_U5C.9)    0.0000                   (X_U5C.a)    7.9594                       

(X_U5C.b)    -.0406                   (X_U6C.6)   -1.5381                       

(X_U6C.7)    9.3290                   (X_U6C.8)    9.3290                       

(X_U6C.9)    0.0000                   (X_U6C.a)    7.9594                       

(X_U6C.b)    -.0406                   (X_U7C.6)   -1.5381                       

(X_U7C.7)    9.3282                   (X_U7C.8)    9.3282                       

(X_U7C.9)    0.0000                   (X_U7C.a)    7.9594                       

(X_U7C.b)    -.0406                   (X_U8C.6)   -1.5381                       

(X_U8C.7)    9.3266                   (X_U8C.8)    9.3266                       

(X_U8C.9)    0.0000                   (X_U8C.a)    7.9594                       

(X_U8C.b)    -.0406                   (X_U9C.6)   -1.5381                       

(X_U9C.7)    9.3292                   (X_U9C.8)    9.3292                       

(X_U9C.9)    0.0000                   (X_U9C.a)    7.9594                       

(X_U9C.b)    -.0406                   (DESCAZUT)    6.0199                      

(X_U1B.10)    6.6275                  (X_U1B.11)   -7.9605                      

(X_U1B.12)   -7.9626                  (X_U1B.13)    6.6136                      

(X_U1B.14)    6.6144                  (X_U1B.53)    6.5000                      

(X_U1B.54)   -7.1780                  (X_U1B.90)    2.9726                      

(X_U1B.91)   40.0000                  (X_U1B.92)  -40.0000                      

(X_U1B.99)    0.0000                  (X_U2B.10)    6.7530                      

(X_U2B.11)   -7.9605                  (X_U2B.12)   -7.9627                      

(X_U2B.13)    6.7392                  (X_U2B.14)    6.7399                      

(X_U2B.53)    6.5000                  (X_U2B.54)   -7.1780                      

(X_U2B.90)    3.0574                  (X_U2B.91)   40.0000                      

(X_U2B.92)  -40.0000                  (X_U2B.99)    0.0000                      

(X_U3C.10)     .6958                  (X_U3C.11)   -7.9602                      

(X_U3C.12)   -7.9605                  (X_U3C.13)     .6819                      

(X_U3C.14)     .6819                  (X_U3C.53)    6.5000                      

(X_U3C.54)   -7.1780                  (X_U3C.90)     .0871                      

(X_U3C.91)   40.0000                  (X_U3C.92)  -40.0000                      

(X_U3C.99)    0.0000                  (X_U4D.10)    3.6685                      

(X_U4D.11)   -7.9604                  (X_U4D.12)   -7.9615                      

(X_U4D.13)    3.6546                  (X_U4D.14)    3.6551                      

(X_U4D.53)    6.5000                  (X_U4D.54)   -7.1780                      

(X_U4D.90)   -2.9727                  (X_U4D.91)   40.0000                      

(X_U4D.92)  -40.0000                  (X_U4D.99)    0.0000                      

(X_U5C.10)    1.1693                  (X_U5C.11)     .0807                      

(X_U5C.12) 1.925E-06                  (X_U5C.13)    1.1411                      

(X_U5C.14)    1.1693                  (X_U5C.53)    6.5000                      

(X_U5C.54)     .8220                  (X_U5C.90)   40.6120                      

(X_U5C.91)   40.0000                  (X_U5C.92)  -40.0000                      

(X_U5C.99)    4.0000                  (X_U6C.10)    1.1693                      

(X_U6C.11)     .0807                  (X_U6C.12) 14.51E-09                      

(X_U6C.13)    1.1411                  (X_U6C.14)    1.1693                      

(X_U6C.53)    6.5000                  (X_U6C.54)     .8220                      

(X_U6C.90)   40.6120                  (X_U6C.91)   40.0000                      

(X_U6C.92)  -40.0000                  (X_U6C.99)    4.0000                      

(X_U7C.10)    1.1693                  (X_U7C.11)     .0807                      

(X_U7C.12) 45.10E-09                  (X_U7C.13)    1.1411                      

(X_U7C.14)    1.1693                  (X_U7C.53)    6.5000                      

(X_U7C.54)     .8220                  (X_U7C.90)   40.6120                      

(X_U7C.91)   40.0000                  (X_U7C.92)  -40.0000                      

(X_U7C.99)    4.0000                  (X_U8C.10)    1.1693                      

(X_U8C.11)     .0807                  (X_U8C.12) 42.16E-09                      

(X_U8C.13)    1.1411                  (X_U8C.14)    1.1693                      

(X_U8C.53)    6.5000                  (X_U8C.54)     .8220                      

(X_U8C.90)   40.6120                  (X_U8C.91)   40.0000                      

(X_U8C.92)  -40.0000                  (X_U8C.99)    4.0000                      

(X_U9C.10)    1.1693                  (X_U9C.11)     .0807                      

(X_U9C.12) 29.94E-09                  (X_U9C.13)    1.1411                      

(X_U9C.14)    1.1693                  (X_U9C.53)    6.5000                      

(X_U9C.54)     .8220                  (X_U9C.90)   40.6120                      

(X_U9C.91)   40.0000                  (X_U9C.92)  -40.0000                      

(X_U9C.99)    4.0000                  




    VOLTAGE SOURCE CURRENTS
    NAME         CURRENT

    V_V1        -1.372E-01
    V_V2         1.008E-02
    X_U2B.vb    -1.202E-08
    X_U2B.vc     3.554E-13
    X_U2B.ve     1.431E-11
    X_U2B.vlim   3.057E-03
    X_U2B.vlp   -3.694E-11
    X_U2B.vln   -4.306E-11
    X_U9C.vb    -1.538E-05
    X_U9C.vc    -2.055E-02
    X_U9C.ve     6.365E-12
    X_U9C.vlim   4.061E-02
    X_U9C.vlp    1.528E-05
    X_U9C.vln   -8.062E-11
    X_U3C.vb    -1.009E-09
    X_U3C.vc     5.972E-12
    X_U3C.ve     8.690E-12
    X_U3C.vlim   8.710E-05
    X_U3C.vlp   -3.991E-11
    X_U3C.vln   -4.009E-11
    X_U1B.vb    -1.177E-08
    X_U1B.vc     4.809E-13
    X_U1B.ve     1.418E-11
    X_U1B.vlim   2.973E-03
    X_U1B.vlp   -3.703E-11
    X_U1B.vln   -4.298E-11
    X_U8C.vb    -1.538E-05
    X_U8C.vc    -1.856E-02
    X_U8C.ve     6.362E-12
    X_U8C.vlim   4.061E-02
    X_U8C.vlp    1.538E-05
    X_U8C.vln   -8.062E-11
    X_U6C.vb    -1.538E-05
    X_U6C.vc    -2.036E-02
    X_U6C.ve     6.365E-12
    X_U6C.vlim   4.061E-02
    X_U6C.vlp    1.529E-05
    X_U6C.vln   -8.062E-11
    X_U5C.vb    -1.538E-05
    X_U5C.vc    -2.006E-02
    X_U5C.ve     6.364E-12
    X_U5C.vlim   4.061E-02
    X_U5C.vlp    1.530E-05
    X_U5C.vln   -8.062E-11
    X_U7C.vb    -1.538E-05
    X_U7C.vc    -1.971E-02
    X_U7C.ve     6.364E-12
    X_U7C.vlim   4.061E-02
    X_U7C.vlp    1.532E-05
    X_U7C.vln   -8.062E-11
    X_U4D.vb     2.596E-10
    X_U4D.vc     6.413E-12
    X_U4D.ve     8.249E-12
    X_U4D.vlim  -2.973E-03
    X_U4D.vlp   -4.297E-11
    X_U4D.vln   -3.703E-11

    TOTAL POWER DISSIPATION   1.32E+00  WATTS


**** 05/21/21 13:13:59 ****** PSpice 17.2.0 (March 2016) ****** ID# 0 ********

 ** Profile: "SCHEMATIC1-dc"  [ D:\Homeworks\An 2 sem 2\Tehnici CAD\Proiect-final\Final-Corect\proiect_cad-pspicefiles\schematic1\dc.


 ****     INITIAL TRANSIENT SOLUTION       TEMPERATURE =   27.000 DEG C

                      MONTE CARLO PASS 3

******************************************************************************



 NODE   VOLTAGE     NODE   VOLTAGE     NODE   VOLTAGE     NODE   VOLTAGE


(  LED)     .7155  (  VCC)    8.0000  ( -VCC)   -8.0000  (N22369)    6.1481     

(N22401)     .1194 (N22473)    6.0093 (N22571)    3.0689 (N22583)     .1196     

(N22863)    3.0701 (N23003)    7.2977 (N23015)    7.3211 (N23185)    7.2981     

(N23197)    1.5609 (N23367)    7.2964 (N23379)    6.7844 (N23549)    7.2980     

(N23569)     .8333 (N23667)    7.2983 (N23743)    4.4815 (SENZOR)    6.1458     

(N229811)    3.3152                   (N231710)    1.9759                       

(N233530)    3.1047                   (N235350)    1.9826                       

(N236530)    1.9161                   (X_U1B.6)    -.0012                       

(X_U1B.7)    6.1546                   (X_U1B.8)    6.1546                       

(X_U1B.9)    0.0000                   (X_U1B.a)    7.9971                       

(X_U1B.b)    -.0030                   (X_U2B.6)    -.0012                       

(X_U2B.7)    6.2999                   (X_U2B.8)    6.2999                       

(X_U2B.9)    0.0000                   (X_U2B.a)    7.9969                       

(X_U2B.b)    -.0031                   (X_U3C.6)-136.6E-06                       

(X_U3C.7)     .7215                   (X_U3C.8)     .7215                       

(X_U3C.9)    0.0000                   (X_U3C.a)    7.9999                       

(X_U3C.b)-119.9E-06                   (X_U4D.6) 19.71E-06                       

(X_U4D.7)    -.0279                   (X_U4D.8)    -.0279                       

(X_U4D.9)    0.0000                   (X_U4D.a)     .0030                       

(X_U4D.b)   -7.9971                   (X_U5C.6)   -1.4485                       

(X_U5C.7)    9.3285                   (X_U5C.8)    9.3285                       

(X_U5C.9)    0.0000                   (X_U5C.a)    7.9594                       

(X_U5C.b)    -.0406                   (X_U6C.6)   -1.5356                       

(X_U6C.7)    9.3287                   (X_U6C.8)    9.3287                       

(X_U6C.9)    0.0000                   (X_U6C.a)    7.9594                       

(X_U6C.b)    -.0406                   (X_U7C.6)   -1.5356                       

(X_U7C.7)    9.3283                   (X_U7C.8)    9.3283                       

(X_U7C.9)    0.0000                   (X_U7C.a)    7.9594                       

(X_U7C.b)    -.0406                   (X_U8C.6)   -1.5356                       

(X_U8C.7)    9.3270                   (X_U8C.8)    9.3270                       

(X_U8C.9)    0.0000                   (X_U8C.a)    7.9594                       

(X_U8C.b)    -.0406                   (X_U9C.6)   -1.5356                       

(X_U9C.7)    9.3290                   (X_U9C.8)    9.3290                       

(X_U9C.9)    0.0000                   (X_U9C.a)    7.9594                       

(X_U9C.b)    -.0406                   (DESCAZUT)    6.0071                      

(X_U1B.10)    6.6147                  (X_U1B.11)   -7.9605                      

(X_U1B.12)   -7.9626                  (X_U1B.13)    6.6008                      

(X_U1B.14)    6.6016                  (X_U1B.53)    6.5000                      

(X_U1B.54)   -7.1780                  (X_U1B.90)    2.9492                      

(X_U1B.91)   40.0000                  (X_U1B.92)  -40.0000                      

(X_U1B.99)    0.0000                  (X_U2B.10)    6.7534                      

(X_U2B.11)   -7.9605                  (X_U2B.12)   -7.9627                      

(X_U2B.13)    6.7395                  (X_U2B.14)    6.7403                      

(X_U2B.53)    6.5000                  (X_U2B.54)   -7.1780                      

(X_U2B.90)    3.0820                  (X_U2B.91)   40.0000                      

(X_U2B.92)  -40.0000                  (X_U2B.99)    0.0000                      

(X_U3C.10)     .7271                  (X_U3C.11)   -7.9602                      

(X_U3C.12)   -7.9605                  (X_U3C.13)     .7132                      

(X_U3C.14)     .7133                  (X_U3C.53)    6.5000                      

(X_U3C.54)   -7.1780                  (X_U3C.90)     .1191                      

(X_U3C.91)   40.0000                  (X_U3C.92)  -40.0000                      

(X_U3C.99)    0.0000                  (X_U4D.10)    3.6766                      

(X_U4D.11)   -7.9604                  (X_U4D.12)   -7.9615                      

(X_U4D.13)    3.6627                  (X_U4D.14)    3.6631                      

(X_U4D.53)    6.5000                  (X_U4D.54)   -7.1780                      

(X_U4D.90)   -2.9494                  (X_U4D.91)   40.0000                      

(X_U4D.92)  -40.0000                  (X_U4D.99)    0.0000                      

(X_U5C.10)    1.3543                  (X_U5C.11)     .0783                      

(X_U5C.12)     .0023                  (X_U5C.13)    1.3269                      

(X_U5C.14)    1.3535                  (X_U5C.53)    6.5000                      

(X_U5C.54)     .8220                  (X_U5C.90)   40.6110                      

(X_U5C.91)   40.0000                  (X_U5C.92)  -40.0000                      

(X_U5C.99)    4.0000                  (X_U6C.10)    1.3559                      

(X_U6C.11)     .0806                  (X_U6C.12) 15.48E-09                      

(X_U6C.13)    1.3277                  (X_U6C.14)    1.3559                      

(X_U6C.53)    6.5000                  (X_U6C.54)     .8220                      

(X_U6C.90)   40.6120                  (X_U6C.91)   40.0000                      

(X_U6C.92)  -40.0000                  (X_U6C.99)    4.0000                      

(X_U7C.10)    1.3559                  (X_U7C.11)     .0806                      

(X_U7C.12) 46.04E-09                  (X_U7C.13)    1.3277                      

(X_U7C.14)    1.3559                  (X_U7C.53)    6.5000                      

(X_U7C.54)     .8220                  (X_U7C.90)   40.6120                      

(X_U7C.91)   40.0000                  (X_U7C.92)  -40.0000                      

(X_U7C.99)    4.0000                  (X_U8C.10)    1.3559                      

(X_U8C.11)     .0806                  (X_U8C.12) 43.19E-09                      

(X_U8C.13)    1.3277                  (X_U8C.14)    1.3559                      

(X_U8C.53)    6.5000                  (X_U8C.54)     .8220                      

(X_U8C.90)   40.6120                  (X_U8C.91)   40.0000                      

(X_U8C.92)  -40.0000                  (X_U8C.99)    4.0000                      

(X_U9C.10)    1.3559                  (X_U9C.11)     .0806                      

(X_U9C.12) 30.97E-09                  (X_U9C.13)    1.3277                      

(X_U9C.14)    1.3559                  (X_U9C.53)    6.5000                      

(X_U9C.54)     .8220                  (X_U9C.90)   40.6120                      

(X_U9C.91)   40.0000                  (X_U9C.92)  -40.0000                      

(X_U9C.99)    4.0000                  




    VOLTAGE SOURCE CURRENTS
    NAME         CURRENT

    V_V1        -1.373E-01
    V_V2         1.006E-02
    X_U2B.vb    -1.203E-08
    X_U2B.vc     3.550E-13
    X_U2B.ve     1.431E-11
    X_U2B.vlim   3.082E-03
    X_U2B.vlp   -3.692E-11
    X_U2B.vln   -4.309E-11
    X_U9C.vb    -1.536E-05
    X_U9C.vc    -2.033E-02
    X_U9C.ve     6.365E-12
    X_U9C.vlim   4.061E-02
    X_U9C.vlp    1.526E-05
    X_U9C.vln   -8.062E-11
    X_U3C.vb    -1.366E-09
    X_U3C.vc     5.785E-12
    X_U3C.ve     8.877E-12
    X_U3C.vlim   1.191E-04
    X_U3C.vlp   -3.988E-11
    X_U3C.vln   -4.012E-11
    X_U1B.vb    -1.175E-08
    X_U1B.vc     4.937E-13
    X_U1B.ve     1.417E-11
    X_U1B.vlim   2.949E-03
    X_U1B.vlp   -3.705E-11
    X_U1B.vln   -4.295E-11
    X_U8C.vb    -1.536E-05
    X_U8C.vc    -1.885E-02
    X_U8C.ve     6.363E-12
    X_U8C.vlim   4.061E-02
    X_U8C.vlp    1.534E-05
    X_U8C.vln   -8.062E-11
    X_U6C.vb    -1.536E-05
    X_U6C.vc    -2.013E-02
    X_U6C.ve     6.364E-12
    X_U6C.vlim   4.061E-02
    X_U6C.vlp    1.527E-05
    X_U6C.vln   -8.062E-11
    X_U5C.vb    -1.449E-05
    X_U5C.vc    -2.006E-02
    X_U5C.ve     6.364E-12
    X_U5C.vlim   4.061E-02
    X_U5C.vlp    1.435E-05
    X_U5C.vln   -8.061E-11
    X_U7C.vb    -1.536E-05
    X_U7C.vc    -1.981E-02
    X_U7C.ve     6.364E-12
    X_U7C.vlim   4.061E-02
    X_U7C.vlp    1.529E-05
    X_U7C.vln   -8.062E-11
    X_U4D.vb     1.971E-10
    X_U4D.vc     6.381E-12
    X_U4D.ve     8.281E-12
    X_U4D.vlim  -2.949E-03
    X_U4D.vlp   -4.295E-11
    X_U4D.vln   -3.705E-11

    TOTAL POWER DISSIPATION   1.32E+00  WATTS


**** 05/21/21 13:13:59 ****** PSpice 17.2.0 (March 2016) ****** ID# 0 ********

 ** Profile: "SCHEMATIC1-dc"  [ D:\Homeworks\An 2 sem 2\Tehnici CAD\Proiect-final\Final-Corect\proiect_cad-pspicefiles\schematic1\dc.


 ****     INITIAL TRANSIENT SOLUTION       TEMPERATURE =   27.000 DEG C

                      MONTE CARLO PASS 4

******************************************************************************



 NODE   VOLTAGE     NODE   VOLTAGE     NODE   VOLTAGE     NODE   VOLTAGE


(  LED)     .7353  (  VCC)    8.0000  ( -VCC)   -8.0000  (N22369)    6.1386     

(N22401)     .1211 (N22473)    5.9983 (N22571)    3.0535 (N22583)     .1214     

(N22863)    3.0547 (N23003)    7.2977 (N23015)    7.3311 (N23185)    7.2982     

(N23197)    1.5545 (N23367)    7.2962 (N23379)    6.7984 (N23549)    7.2983     

(N23569)     .8354 (N23667)    7.2987 (N23743)    4.4581 (SENZOR)    6.1363     

(N229811)    3.3151                   (N231710)    1.9751                       

(N233530)    3.1065                   (N235350)    1.9812                       

(N236530)    1.9149                   (X_U1B.6)    -.0012                       

(X_U1B.7)    6.1427                   (X_U1B.8)    6.1427                       

(X_U1B.9)    0.0000                   (X_U1B.a)    7.9971                       

(X_U1B.b)    -.0029                   (X_U2B.6)    -.0012                       

(X_U2B.7)    6.2900                   (X_U2B.8)    6.2900                       

(X_U2B.9)    0.0000                   (X_U2B.a)    7.9969                       

(X_U2B.b)    -.0031                   (X_U3C.6)-140.3E-06                       

(X_U3C.7)     .7413                   (X_U3C.8)     .7413                       

(X_U3C.9)    0.0000                   (X_U3C.a)    7.9999                       

(X_U3C.b)-122.2E-06                   (X_U4D.6) 19.13E-06                       

(X_U4D.7)    -.0252                   (X_U4D.8)    -.0252                       

(X_U4D.9)    0.0000                   (X_U4D.a)     .0029                       

(X_U4D.b)   -7.9971                   (X_U5C.6)   -1.3760                       

(X_U5C.7)    9.3287                   (X_U5C.8)    9.3287                       

(X_U5C.9)    0.0000                   (X_U5C.a)    7.9594                       

(X_U5C.b)    -.0406                   (X_U6C.6)   -1.5353                       

(X_U6C.7)    9.3289                   (X_U6C.8)    9.3289                       

(X_U6C.9)    0.0000                   (X_U6C.a)    7.9594                       

(X_U6C.b)    -.0406                   (X_U7C.6)   -1.5353                       

(X_U7C.7)    9.3283                   (X_U7C.8)    9.3283                       

(X_U7C.9)    0.0000                   (X_U7C.a)    7.9594                       

(X_U7C.b)    -.0406                   (X_U8C.6)   -1.5353                       

(X_U8C.7)    9.3269                   (X_U8C.8)    9.3269                       

(X_U8C.9)    0.0000                   (X_U8C.a)    7.9594                       

(X_U8C.b)    -.0406                   (X_U9C.6)   -1.5353                       

(X_U9C.7)    9.3293                   (X_U9C.8)    9.3293                       

(X_U9C.9)    0.0000                   (X_U9C.a)    7.9594                       

(X_U9C.b)    -.0406                   (DESCAZUT)    5.9961                      

(X_U1B.10)    6.6037                  (X_U1B.11)   -7.9605                      

(X_U1B.12)   -7.9626                  (X_U1B.13)    6.5898                      

(X_U1B.14)    6.5906                  (X_U1B.53)    6.5000                      

(X_U1B.54)   -7.1780                  (X_U1B.90)    2.9320                      

(X_U1B.91)   40.0000                  (X_U1B.92)  -40.0000                      

(X_U1B.99)    0.0000                  (X_U2B.10)    6.7439                      

(X_U2B.11)   -7.9605                  (X_U2B.12)   -7.9627                      

(X_U2B.13)    6.7300                  (X_U2B.14)    6.7308                      

(X_U2B.53)    6.5000                  (X_U2B.54)   -7.1780                      

(X_U2B.90)    3.0733                  (X_U2B.91)   40.0000                      

(X_U2B.92)  -40.0000                  (X_U2B.99)    0.0000                      

(X_U3C.10)     .7289                  (X_U3C.11)   -7.9602                      

(X_U3C.12)   -7.9605                  (X_U3C.13)     .7150                      

(X_U3C.14)     .7151                  (X_U3C.53)    6.5000                      

(X_U3C.54)   -7.1780                  (X_U3C.90)     .1214                      

(X_U3C.91)   40.0000                  (X_U3C.92)  -40.0000                      

(X_U3C.99)    0.0000                  (X_U4D.10)    3.6612                      

(X_U4D.11)   -7.9604                  (X_U4D.12)   -7.9615                      

(X_U4D.13)    3.6473                  (X_U4D.14)    3.6477                      

(X_U4D.53)    6.5000                  (X_U4D.54)   -7.1780                      

(X_U4D.90)   -2.9322                  (X_U4D.91)   40.0000                      

(X_U4D.92)  -40.0000                  (X_U4D.99)    0.0000                      

(X_U5C.10)    1.3727                  (X_U5C.11)     .0764                      

(X_U5C.12)     .0042                  (X_U5C.13)    1.3460                      

(X_U5C.14)    1.3713                  (X_U5C.53)    6.5000                      

(X_U5C.54)     .8220                  (X_U5C.90)   40.6090                      

(X_U5C.91)   40.0000                  (X_U5C.92)  -40.0000                      

(X_U5C.99)    4.0000                  (X_U6C.10)    1.3756                      

(X_U6C.11)     .0806                  (X_U6C.12) 15.55E-09                      

(X_U6C.13)    1.3474                  (X_U6C.14)    1.3756                      

(X_U6C.53)    6.5000                  (X_U6C.54)     .8220                      

(X_U6C.90)   40.6120                  (X_U6C.91)   40.0000                      

(X_U6C.92)  -40.0000                  (X_U6C.99)    4.0000                      

(X_U7C.10)    1.3756                  (X_U7C.11)     .0806                      

(X_U7C.12) 46.19E-09                  (X_U7C.13)    1.3474                      

(X_U7C.14)    1.3756                  (X_U7C.53)    6.5000                      

(X_U7C.54)     .8220                  (X_U7C.90)   40.6120                      

(X_U7C.91)   40.0000                  (X_U7C.92)  -40.0000                      

(X_U7C.99)    4.0000                  (X_U8C.10)    1.3756                      

(X_U8C.11)     .0806                  (X_U8C.12) 43.37E-09                      

(X_U8C.13)    1.3474                  (X_U8C.14)    1.3756                      

(X_U8C.53)    6.5000                  (X_U8C.54)     .8220                      

(X_U8C.90)   40.6120                  (X_U8C.91)   40.0000                      

(X_U8C.92)  -40.0000                  (X_U8C.99)    4.0000                      

(X_U9C.10)    1.3756                  (X_U9C.11)     .0806                      

(X_U9C.12) 30.95E-09                  (X_U9C.13)    1.3474                      

(X_U9C.14)    1.3756                  (X_U9C.53)    6.5000                      

(X_U9C.54)     .8220                  (X_U9C.90)   40.6120                      

(X_U9C.91)   40.0000                  (X_U9C.92)  -40.0000                      

(X_U9C.99)    4.0000                  




    VOLTAGE SOURCE CURRENTS
    NAME         CURRENT

    V_V1        -1.367E-01
    V_V2         1.004E-02
    X_U2B.vb    -1.201E-08
    X_U2B.vc     3.645E-13
    X_U2B.ve     1.430E-11
    X_U2B.vlim   3.073E-03
    X_U2B.vlp   -3.693E-11
    X_U2B.vln   -4.308E-11
    X_U9C.vb    -1.535E-05
    X_U9C.vc    -2.061E-02
    X_U9C.ve     6.365E-12
    X_U9C.vlim   4.061E-02
    X_U9C.vlp    1.525E-05
    X_U9C.vln   -8.062E-11
    X_U3C.vb    -1.403E-09
    X_U3C.vc     5.766E-12
    X_U3C.ve     8.897E-12
    X_U3C.vlim   1.214E-04
    X_U3C.vlp   -3.988E-11
    X_U3C.vln   -4.013E-11
    X_U1B.vb    -1.172E-08
    X_U1B.vc     5.047E-13
    X_U1B.ve     1.416E-11
    X_U1B.vlim   2.932E-03
    X_U1B.vlp   -3.707E-11
    X_U1B.vln   -4.294E-11
    X_U8C.vb    -1.535E-05
    X_U8C.vc    -1.874E-02
    X_U8C.ve     6.363E-12
    X_U8C.vlim   4.061E-02
    X_U8C.vlp    1.534E-05
    X_U8C.vln   -8.062E-11
    X_U6C.vb    -1.535E-05
    X_U6C.vc    -2.024E-02
    X_U6C.ve     6.365E-12
    X_U6C.vlim   4.061E-02
    X_U6C.vlp    1.527E-05
    X_U6C.vln   -8.062E-11
    X_U5C.vb    -1.376E-05
    X_U5C.vc    -2.027E-02
    X_U5C.ve     6.365E-12
    X_U5C.vlim   4.061E-02
    X_U5C.vlp    1.357E-05
    X_U5C.vln   -8.061E-11
    X_U7C.vb    -1.535E-05
    X_U7C.vc    -1.982E-02
    X_U7C.ve     6.364E-12
    X_U7C.vlim   4.061E-02
    X_U7C.vlp    1.529E-05
    X_U7C.vln   -8.062E-11
    X_U4D.vb     1.913E-10
    X_U4D.vc     6.379E-12
    X_U4D.ve     8.283E-12
    X_U4D.vlim  -2.932E-03
    X_U4D.vlp   -4.293E-11
    X_U4D.vln   -3.707E-11

    TOTAL POWER DISSIPATION   1.32E+00  WATTS


**** 05/21/21 13:13:59 ****** PSpice 17.2.0 (March 2016) ****** ID# 0 ********

 ** Profile: "SCHEMATIC1-dc"  [ D:\Homeworks\An 2 sem 2\Tehnici CAD\Proiect-final\Final-Corect\proiect_cad-pspicefiles\schematic1\dc.


 ****     INITIAL TRANSIENT SOLUTION       TEMPERATURE =   27.000 DEG C

                      MONTE CARLO PASS 5

******************************************************************************



 NODE   VOLTAGE     NODE   VOLTAGE     NODE   VOLTAGE     NODE   VOLTAGE


(  LED)     .9628  (  VCC)    8.0000  ( -VCC)   -8.0000  (N22369)    6.1546     

(N22401)     .1609 (N22473)    5.9871 (N22571)    3.0724 (N22583)     .1612     

(N22863)    3.0736 (N23003)    7.2977 (N23015)    7.3316 (N23185)    7.2984     

(N23197)    1.5700 (N23367)    7.2963 (N23379)    6.7959 (N23549)     .0057     

(N23569)     .8419 (N23667)    7.2984 (N23743)    4.4399 (SENZOR)    6.1523     

(N229811)    3.3151                   (N231710)    1.9743                       

(N233530)    3.1054                   (N235350)     .0057                       

(N236530)    1.9161                   (X_U1B.6)    -.0012                       

(X_U1B.7)    6.1305                   (X_U1B.8)    6.1305                       

(X_U1B.9)    0.0000                   (X_U1B.a)    7.9971                       

(X_U1B.b)    -.0029                   (X_U2B.6)    -.0012                       

(X_U2B.7)    6.3070                   (X_U2B.8)    6.3070                       

(X_U2B.9)    0.0000                   (X_U2B.a)    7.9969                       

(X_U2B.b)    -.0031                   (X_U3C.6)-183.8E-06                       

(X_U3C.7)     .9708                   (X_U3C.8)     .9708                       

(X_U3C.9)    0.0000                   (X_U3C.a)    7.9998                       

(X_U3C.b)-162.0E-06                   (X_U4D.6) 11.33E-06                       

(X_U4D.7)     .0156                   (X_U4D.8)     .0156                       

(X_U4D.9)    0.0000                   (X_U4D.a)     .0029                       

(X_U4D.b)   -7.9971                   (X_U5C.6)    1.4262                       

(X_U5C.7)   -2.0247                   (X_U5C.8)   -2.0247                       

(X_U5C.9)    0.0000                   (X_U5C.a)     .0406                       

(X_U5C.b)     .0406                   (X_U6C.6)   -1.5323                       

(X_U6C.7)    9.3290                   (X_U6C.8)    9.3290                       

(X_U6C.9)    0.0000                   (X_U6C.a)    7.9594                       

(X_U6C.b)    -.0406                   (X_U7C.6)   -1.5323                       

(X_U7C.7)    9.3283                   (X_U7C.8)    9.3283                       

(X_U7C.9)    0.0000                   (X_U7C.a)    7.9594                       

(X_U7C.b)    -.0406                   (X_U8C.6)   -1.5323                       

(X_U8C.7)    9.3270                   (X_U8C.8)    9.3270                       

(X_U8C.9)    0.0000                   (X_U8C.a)    7.9594                       

(X_U8C.b)    -.0406                   (X_U9C.6)   -1.5323                       

(X_U9C.7)    9.3290                   (X_U9C.8)    9.3290                       

(X_U9C.9)    0.0000                   (X_U9C.a)    7.9594                       

(X_U9C.b)    -.0406                   (DESCAZUT)    5.9849                      

(X_U1B.10)    6.5925                  (X_U1B.11)   -7.9605                      

(X_U1B.12)   -7.9626                  (X_U1B.13)    6.5786                      

(X_U1B.14)    6.5794                  (X_U1B.53)    6.5000                      

(X_U1B.54)   -7.1780                  (X_U1B.90)    2.9112                      

(X_U1B.91)   40.0000                  (X_U1B.92)  -40.0000                      

(X_U1B.99)    0.0000                  (X_U2B.10)    6.7599                      

(X_U2B.11)   -7.9605                  (X_U2B.12)   -7.9627                      

(X_U2B.13)    6.7460                  (X_U2B.14)    6.7468                      

(X_U2B.53)    6.5000                  (X_U2B.54)   -7.1780                      

(X_U2B.90)    3.0927                  (X_U2B.91)   40.0000                      

(X_U2B.92)  -40.0000                  (X_U2B.99)    0.0000                      

(X_U3C.10)     .7687                  (X_U3C.11)   -7.9602                      

(X_U3C.12)   -7.9605                  (X_U3C.13)     .7548                      

(X_U3C.14)     .7548                  (X_U3C.53)    6.5000                      

(X_U3C.54)   -7.1780                  (X_U3C.90)     .1612                      

(X_U3C.91)   40.0000                  (X_U3C.92)  -40.0000                      

(X_U3C.99)    0.0000                  (X_U4D.10)    3.6800                      

(X_U4D.11)   -7.9604                  (X_U4D.12)   -7.9615                      

(X_U4D.13)    3.6662                  (X_U4D.14)    3.6666                      

(X_U4D.53)    6.5000                  (X_U4D.54)   -7.1780                      

(X_U4D.90)   -2.9113                  (X_U4D.91)   40.0000                      

(X_U4D.92)  -40.0000                  (X_U4D.99)    0.0000                      

(X_U5C.10)    1.4808                  (X_U5C.11)     .0021                      

(X_U5C.12)     .0785                  (X_U5C.13)    1.4801                      

(X_U5C.14)    1.4533                  (X_U5C.53)    6.5000                      

(X_U5C.54)     .8220                  (X_U5C.90)  -40.6080                      

(X_U5C.91)   40.0000                  (X_U5C.92)  -40.0000                      

(X_U5C.99)    4.0000                  (X_U6C.10)    1.6030                      

(X_U6C.11)     .0805                  (X_U6C.12) 16.85E-09                      

(X_U6C.13)    1.5749                  (X_U6C.14)    1.6030                      

(X_U6C.53)    6.5000                  (X_U6C.54)     .8220                      

(X_U6C.90)   40.6120                  (X_U6C.91)   40.0000                      

(X_U6C.92)  -40.0000                  (X_U6C.99)    4.0000                      

(X_U7C.10)    1.6030                  (X_U7C.11)     .0805                      

(X_U7C.12) 47.40E-09                  (X_U7C.13)    1.5749                      

(X_U7C.14)    1.6030                  (X_U7C.53)    6.5000                      

(X_U7C.54)     .8220                  (X_U7C.90)   40.6120                      

(X_U7C.91)   40.0000                  (X_U7C.92)  -40.0000                      

(X_U7C.99)    4.0000                  (X_U8C.10)    1.6030                      

(X_U8C.11)     .0805                  (X_U8C.12) 44.56E-09                      

(X_U8C.13)    1.5749                  (X_U8C.14)    1.6030                      

(X_U8C.53)    6.5000                  (X_U8C.54)     .8220                      

(X_U8C.90)   40.6120                  (X_U8C.91)   40.0000                      

(X_U8C.92)  -40.0000                  (X_U8C.99)    4.0000                      

(X_U9C.10)    1.6030                  (X_U9C.11)     .0805                      

(X_U9C.12) 32.06E-09                  (X_U9C.13)    1.5749                      

(X_U9C.14)    1.6030                  (X_U9C.53)    6.5000                      

(X_U9C.54)     .8220                  (X_U9C.90)   40.6120                      

(X_U9C.91)   40.0000                  (X_U9C.92)  -40.0000                      

(X_U9C.99)    4.0000                  




    VOLTAGE SOURCE CURRENTS
    NAME         CURRENT

    V_V1        -1.166E-01
    V_V2         1.002E-02
    X_U2B.vb    -1.204E-08
    X_U2B.vc     3.485E-13
    X_U2B.ve     1.431E-11
    X_U2B.vlim   3.093E-03
    X_U2B.vlp   -3.691E-11
    X_U2B.vln   -4.310E-11
    X_U9C.vb    -1.532E-05
    X_U9C.vc    -2.033E-02
    X_U9C.ve     6.365E-12
    X_U9C.vlim   4.061E-02
    X_U9C.vlp    1.523E-05
    X_U9C.vln   -8.062E-11
    X_U3C.vb    -1.838E-09
    X_U3C.vc     5.538E-12
    X_U3C.ve     9.124E-12
    X_U3C.vlim   1.612E-04
    X_U3C.vlp   -3.984E-11
    X_U3C.vln   -4.017E-11
    X_U1B.vb    -1.170E-08
    X_U1B.vc     5.159E-13
    X_U1B.ve     1.415E-11
    X_U1B.vlim   2.911E-03
    X_U1B.vlp   -3.709E-11
    X_U1B.vln   -4.291E-11
    X_U8C.vb    -1.532E-05
    X_U8C.vc    -1.881E-02
    X_U8C.ve     6.363E-12
    X_U8C.vlim   4.061E-02
    X_U8C.vlp    1.530E-05
    X_U8C.vln   -8.062E-11
    X_U6C.vb    -1.532E-05
    X_U6C.vc    -2.036E-02
    X_U6C.ve     6.365E-12
    X_U6C.vlim   4.061E-02
    X_U6C.vlp    1.523E-05
    X_U6C.vln   -8.062E-11
    X_U5C.vb     1.426E-05
    X_U5C.vc     6.495E-12
    X_U5C.ve    -4.061E-02
    X_U5C.vlim  -4.061E-02
    X_U5C.vlp   -8.061E-11
    X_U5C.vln    1.309E-05
    X_U7C.vb    -1.532E-05
    X_U7C.vc    -1.982E-02
    X_U7C.ve     6.364E-12
    X_U7C.vlim   4.061E-02
    X_U7C.vlp    1.525E-05
    X_U7C.vln   -8.062E-11
    X_U4D.vb     1.133E-10
    X_U4D.vc     6.340E-12
    X_U4D.ve     8.322E-12
    X_U4D.vlim  -2.911E-03
    X_U4D.vlp   -4.291E-11
    X_U4D.vln   -3.709E-11

    TOTAL POWER DISSIPATION   1.16E+00  WATTS


**** 05/21/21 13:13:59 ****** PSpice 17.2.0 (March 2016) ****** ID# 0 ********

 ** Profile: "SCHEMATIC1-dc"  [ D:\Homeworks\An 2 sem 2\Tehnici CAD\Proiect-final\Final-Corect\proiect_cad-pspicefiles\schematic1\dc.


 ****     INITIAL TRANSIENT SOLUTION       TEMPERATURE =   27.000 DEG C

                      MONTE CARLO PASS 6

******************************************************************************



 NODE   VOLTAGE     NODE   VOLTAGE     NODE   VOLTAGE     NODE   VOLTAGE


(  LED)     .5968  (  VCC)    8.0000  ( -VCC)   -8.0000  (N22369)    6.1354     

(N22401)     .0999 (N22473)    5.9964 (N22571)    3.0458 (N22583)     .1001     

(N22863)    3.0470 (N23003)    7.2978 (N23015)    7.3347 (N23185)    7.2981     

(N23197)    1.5678 (N23367)    7.2961 (N23379)    6.7895 (N23549)    7.2983     

(N23569)     .8290 (N23667)    7.2986 (N23743)    4.4662 (SENZOR)    6.1332     

(N229811)    3.3139                   (N231710)    1.9759                       

(N233530)    3.1080                   (N235350)    1.9811                       

(N236530)    1.9153                   (X_U1B.6)    -.0012                       

(X_U1B.7)    6.1415                   (X_U1B.8)    6.1415                       

(X_U1B.9)    0.0000                   (X_U1B.a)    7.9971                       

(X_U1B.b)    -.0029                   (X_U2B.6)    -.0012                       

(X_U2B.7)    6.2862                   (X_U2B.8)    6.2862                       

(X_U2B.9)    0.0000                   (X_U2B.a)    7.9969                       

(X_U2B.b)    -.0031                   (X_U3C.6)-113.9E-06                       

(X_U3C.7)     .6017                   (X_U3C.8)     .6017                       

(X_U3C.9)    0.0000                   (X_U3C.a)    7.9999                       

(X_U3C.b)-99.87E-06                   (X_U4D.6) 23.32E-06                       

(X_U4D.7)    -.0471                   (X_U4D.8)    -.0471                       

(X_U4D.9)    0.0000                   (X_U4D.a)     .0029                       

(X_U4D.b)   -7.9971                   (X_U5C.6)   -1.5360                       

(X_U5C.7)    9.3289                   (X_U5C.8)    9.3289                       

(X_U5C.9)    0.0000                   (X_U5C.a)    7.9594                       

(X_U5C.b)    -.0406                   (X_U6C.6)   -1.5372                       

(X_U6C.7)    9.3287                   (X_U6C.8)    9.3287                       

(X_U6C.9)    0.0000                   (X_U6C.a)    7.9594                       

(X_U6C.b)    -.0406                   (X_U7C.6)   -1.5372                       

(X_U7C.7)    9.3284                   (X_U7C.8)    9.3284                       

(X_U7C.9)    0.0000                   (X_U7C.a)    7.9594                       

(X_U7C.b)    -.0406                   (X_U8C.6)   -1.5372                       

(X_U8C.7)    9.3268                   (X_U8C.8)    9.3268                       

(X_U8C.9)    0.0000                   (X_U8C.a)    7.9594                       

(X_U8C.b)    -.0406                   (X_U9C.6)   -1.5372                       

(X_U9C.7)    9.3292                   (X_U9C.8)    9.3292                       

(X_U9C.9)    0.0000                   (X_U9C.a)    7.9594                       

(X_U9C.b)    -.0406                   (DESCAZUT)    5.9942                      

(X_U1B.10)    6.6017                  (X_U1B.11)   -7.9605                      

(X_U1B.12)   -7.9626                  (X_U1B.13)    6.5879                      

(X_U1B.14)    6.5887                  (X_U1B.53)    6.5000                      

(X_U1B.54)   -7.1780                  (X_U1B.90)    2.9456                      

(X_U1B.91)   40.0000                  (X_U1B.92)  -40.0000                      

(X_U1B.99)    0.0000                  (X_U2B.10)    6.7407                      

(X_U2B.11)   -7.9605                  (X_U2B.12)   -7.9627                      

(X_U2B.13)    6.7269                  (X_U2B.14)    6.7277                      

(X_U2B.53)    6.5000                  (X_U2B.54)   -7.1780                      

(X_U2B.90)    3.0601                  (X_U2B.91)   40.0000                      

(X_U2B.92)  -40.0000                  (X_U2B.99)    0.0000                      

(X_U3C.10)     .7077                  (X_U3C.11)   -7.9602                      

(X_U3C.12)   -7.9605                  (X_U3C.13)     .6938                      

(X_U3C.14)     .6939                  (X_U3C.53)    6.5000                      

(X_U3C.54)   -7.1780                  (X_U3C.90)     .0991                      

(X_U3C.91)   40.0000                  (X_U3C.92)  -40.0000                      

(X_U3C.99)    0.0000                  (X_U4D.10)    3.6534                      

(X_U4D.11)   -7.9604                  (X_U4D.12)   -7.9615                      

(X_U4D.13)    3.6396                  (X_U4D.14)    3.6400                      

(X_U4D.53)    6.5000                  (X_U4D.54)   -7.1780                      

(X_U4D.90)   -2.9457                  (X_U4D.91)   40.0000                      

(X_U4D.92)  -40.0000                  (X_U4D.99)    0.0000                      

(X_U5C.10)    1.2371                  (X_U5C.11)     .0806                      

(X_U5C.12) 30.23E-06                  (X_U5C.13)    1.2089                      

(X_U5C.14)    1.2371                  (X_U5C.53)    6.5000                      

(X_U5C.54)     .8220                  (X_U5C.90)   40.6120                      

(X_U5C.91)   40.0000                  (X_U5C.92)  -40.0000                      

(X_U5C.99)    4.0000                  (X_U6C.10)    1.2372                      

(X_U6C.11)     .0807                  (X_U6C.12) 14.88E-09                      

(X_U6C.13)    1.2089                  (X_U6C.14)    1.2372                      

(X_U6C.53)    6.5000                  (X_U6C.54)     .8220                      

(X_U6C.90)   40.6120                  (X_U6C.91)   40.0000                      

(X_U6C.92)  -40.0000                  (X_U6C.99)    4.0000                      

(X_U7C.10)    1.2372                  (X_U7C.11)     .0807                      

(X_U7C.12) 45.48E-09                  (X_U7C.13)    1.2089                      

(X_U7C.14)    1.2372                  (X_U7C.53)    6.5000                      

(X_U7C.54)     .8220                  (X_U7C.90)   40.6120                      

(X_U7C.91)   40.0000                  (X_U7C.92)  -40.0000                      

(X_U7C.99)    4.0000                  (X_U8C.10)    1.2372                      

(X_U8C.11)     .0807                  (X_U8C.12) 42.59E-09                      

(X_U8C.13)    1.2089                  (X_U8C.14)    1.2372                      

(X_U8C.53)    6.5000                  (X_U8C.54)     .8220                      

(X_U8C.90)   40.6120                  (X_U8C.91)   40.0000                      

(X_U8C.92)  -40.0000                  (X_U8C.99)    4.0000                      

(X_U9C.10)    1.2372                  (X_U9C.11)     .0807                      

(X_U9C.12) 30.26E-09                  (X_U9C.13)    1.2089                      

(X_U9C.14)    1.2372                  (X_U9C.53)    6.5000                      

(X_U9C.54)     .8220                  (X_U9C.90)   40.6120                      

(X_U9C.91)   40.0000                  (X_U9C.92)  -40.0000                      

(X_U9C.99)    4.0000                  




    VOLTAGE SOURCE CURRENTS
    NAME         CURRENT

    V_V1        -1.370E-01
    V_V2         1.005E-02
    X_U2B.vb    -1.200E-08
    X_U2B.vc     3.676E-13
    X_U2B.ve     1.429E-11
    X_U2B.vlim   3.060E-03
    X_U2B.vlp   -3.694E-11
    X_U2B.vln   -4.306E-11
    X_U9C.vb    -1.537E-05
    X_U9C.vc    -2.053E-02
    X_U9C.ve     6.365E-12
    X_U9C.vlim   4.061E-02
    X_U9C.vlp    1.527E-05
    X_U9C.vln   -8.062E-11
    X_U3C.vb    -1.139E-09
    X_U3C.vc     5.904E-12
    X_U3C.ve     8.758E-12
    X_U3C.vlim   9.907E-05
    X_U3C.vlp   -3.990E-11
    X_U3C.vln   -4.010E-11
    X_U1B.vb    -1.172E-08
    X_U1B.vc     5.066E-13
    X_U1B.ve     1.416E-11
    X_U1B.vlim   2.946E-03
    X_U1B.vlp   -3.706E-11
    X_U1B.vln   -4.295E-11
    X_U8C.vb    -1.537E-05
    X_U8C.vc    -1.866E-02
    X_U8C.ve     6.362E-12
    X_U8C.vlim   4.061E-02
    X_U8C.vlp    1.536E-05
    X_U8C.vln   -8.062E-11
    X_U6C.vb    -1.537E-05
    X_U6C.vc    -2.011E-02
    X_U6C.ve     6.364E-12
    X_U6C.vlim   4.061E-02
    X_U6C.vlp    1.529E-05
    X_U6C.vln   -8.062E-11
    X_U5C.vb    -1.536E-05
    X_U5C.vc    -2.029E-02
    X_U5C.ve     6.365E-12
    X_U5C.vlim   4.061E-02
    X_U5C.vlp    1.527E-05
    X_U5C.vln   -8.062E-11
    X_U7C.vb    -1.537E-05
    X_U7C.vc    -1.991E-02
    X_U7C.ve     6.364E-12
    X_U7C.vlim   4.061E-02
    X_U7C.vlp    1.530E-05
    X_U7C.vln   -8.062E-11
    X_U4D.vb     2.332E-10
    X_U4D.vc     6.401E-12
    X_U4D.ve     8.261E-12
    X_U4D.vlim  -2.946E-03
    X_U4D.vlp   -4.295E-11
    X_U4D.vln   -3.706E-11

    TOTAL POWER DISSIPATION   1.32E+00  WATTS


**** 05/21/21 13:13:59 ****** PSpice 17.2.0 (March 2016) ****** ID# 0 ********

 ** Profile: "SCHEMATIC1-dc"  [ D:\Homeworks\An 2 sem 2\Tehnici CAD\Proiect-final\Final-Corect\proiect_cad-pspicefiles\schematic1\dc.


 ****     INITIAL TRANSIENT SOLUTION       TEMPERATURE =   27.000 DEG C

                      MONTE CARLO PASS 7

******************************************************************************



 NODE   VOLTAGE     NODE   VOLTAGE     NODE   VOLTAGE     NODE   VOLTAGE


(  LED)     .6462  (  VCC)    8.0000  ( -VCC)   -8.0000  (N22369)    6.1351     

(N22401)     .1095 (N22473)    6.0002 (N22571)    3.0667 (N22583)     .1097     

(N22863)    3.0678 (N23003)    7.2978 (N23015)    7.3357 (N23185)    7.2983     

(N23197)    1.5552 (N23367)    7.2961 (N23379)    6.7734 (N23549)    7.2982     

(N23569)     .8387 (N23667)    7.2984 (N23743)    4.4543 (SENZOR)    6.1329     

(N229811)    3.3142                   (N231710)    1.9745                       

(N233530)    3.1079                   (N235350)    1.9816                       

(N236530)    1.9160                   (X_U1B.6)    -.0012                       

(X_U1B.7)    6.1458                   (X_U1B.8)    6.1458                       

(X_U1B.9)    0.0000                   (X_U1B.a)    7.9970                       

(X_U1B.b)    -.0030                   (X_U2B.6)    -.0012                       

(X_U2B.7)    6.2869                   (X_U2B.8)    6.2869                       

(X_U2B.9)    0.0000                   (X_U2B.a)    7.9969                       

(X_U2B.b)    -.0031                   (X_U3C.6)-123.4E-06                       

(X_U3C.7)     .6516                   (X_U3C.8)     .6516                       

(X_U3C.9)    0.0000                   (X_U3C.a)    7.9999                       

(X_U3C.b)-108.9E-06                   (X_U4D.6) 21.68E-06                       

(X_U4D.7)    -.0381                   (X_U4D.8)    -.0381                       

(X_U4D.9)    0.0000                   (X_U4D.a)     .0030                       

(X_U4D.b)   -7.9970                   (X_U5C.6)   -1.5312                       

(X_U5C.7)    9.3288                   (X_U5C.8)    9.3288                       

(X_U5C.9)    0.0000                   (X_U5C.a)    7.9594                       

(X_U5C.b)    -.0406                   (X_U6C.6)   -1.5365                       

(X_U6C.7)    9.3290                   (X_U6C.8)    9.3290                       

(X_U6C.9)    0.0000                   (X_U6C.a)    7.9594                       

(X_U6C.b)    -.0406                   (X_U7C.6)   -1.5365                       

(X_U7C.7)    9.3284                   (X_U7C.8)    9.3284                       

(X_U7C.9)    0.0000                   (X_U7C.a)    7.9594                       

(X_U7C.b)    -.0406                   (X_U8C.6)   -1.5365                       

(X_U8C.7)    9.3268                   (X_U8C.8)    9.3268                       

(X_U8C.9)    0.0000                   (X_U8C.a)    7.9594                       

(X_U8C.b)    -.0406                   (X_U9C.6)   -1.5365                       

(X_U9C.7)    9.3290                   (X_U9C.8)    9.3290                       

(X_U9C.9)    0.0000                   (X_U9C.a)    7.9594                       

(X_U9C.b)    -.0406                   (DESCAZUT)    5.9980                      

(X_U1B.10)    6.6055                  (X_U1B.11)   -7.9605                      

(X_U1B.12)   -7.9626                  (X_U1B.13)    6.5917                      

(X_U1B.14)    6.5924                  (X_U1B.53)    6.5000                      

(X_U1B.54)   -7.1780                  (X_U1B.90)    2.9568                      

(X_U1B.91)   40.0000                  (X_U1B.92)  -40.0000                      

(X_U1B.99)    0.0000                  (X_U2B.10)    6.7404                      

(X_U2B.11)   -7.9605                  (X_U2B.12)   -7.9627                      

(X_U2B.13)    6.7266                  (X_U2B.14)    6.7274                      

(X_U2B.53)    6.5000                  (X_U2B.54)   -7.1780                      

(X_U2B.90)    3.0803                  (X_U2B.91)   40.0000                      

(X_U2B.92)  -40.0000                  (X_U2B.99)    0.0000                      

(X_U3C.10)     .7173                  (X_U3C.11)   -7.9602                      

(X_U3C.12)   -7.9605                  (X_U3C.13)     .7033                      

(X_U3C.14)     .7034                  (X_U3C.53)    6.5000                      

(X_U3C.54)   -7.1780                  (X_U3C.90)     .1081                      

(X_U3C.91)   40.0000                  (X_U3C.92)  -40.0000                      

(X_U3C.99)    0.0000                  (X_U4D.10)    3.6743                      

(X_U4D.11)   -7.9604                  (X_U4D.12)   -7.9615                      

(X_U4D.13)    3.6604                  (X_U4D.14)    3.6608                      

(X_U4D.53)    6.5000                  (X_U4D.54)   -7.1780                      

(X_U4D.90)   -2.9570                  (X_U4D.91)   40.0000                      

(X_U4D.92)  -40.0000                  (X_U4D.99)    0.0000                      

(X_U5C.10)    1.2865                  (X_U5C.11)     .0805                      

(X_U5C.12) 140.2E-06                  (X_U5C.13)    1.2583                      

(X_U5C.14)    1.2865                  (X_U5C.53)    6.5000                      

(X_U5C.54)     .8220                  (X_U5C.90)   40.6120                      

(X_U5C.91)   40.0000                  (X_U5C.92)  -40.0000                      

(X_U5C.99)    4.0000                  (X_U6C.10)    1.2866                      

(X_U6C.11)     .0807                  (X_U6C.12) 15.08E-09                      

(X_U6C.13)    1.2584                  (X_U6C.14)    1.2866                      

(X_U6C.53)    6.5000                  (X_U6C.54)     .8220                      

(X_U6C.90)   40.6120                  (X_U6C.91)   40.0000                      

(X_U6C.92)  -40.0000                  (X_U6C.99)    4.0000                      

(X_U7C.10)    1.2866                  (X_U7C.11)     .0807                      

(X_U7C.12) 45.75E-09                  (X_U7C.13)    1.2584                      

(X_U7C.14)    1.2866                  (X_U7C.53)    6.5000                      

(X_U7C.54)     .8220                  (X_U7C.90)   40.6120                      

(X_U7C.91)   40.0000                  (X_U7C.92)  -40.0000                      

(X_U7C.99)    4.0000                  (X_U8C.10)    1.2866                      

(X_U8C.11)     .0807                  (X_U8C.12) 42.76E-09                      

(X_U8C.13)    1.2584                  (X_U8C.14)    1.2866                      

(X_U8C.53)    6.5000                  (X_U8C.54)     .8220                      

(X_U8C.90)   40.6120                  (X_U8C.91)   40.0000                      

(X_U8C.92)  -40.0000                  (X_U8C.99)    4.0000                      

(X_U9C.10)    1.2866                  (X_U9C.11)     .0807                      

(X_U9C.12) 30.46E-09                  (X_U9C.13)    1.2584                      

(X_U9C.14)    1.2866                  (X_U9C.53)    6.5000                      

(X_U9C.54)     .8220                  (X_U9C.90)   40.6120                      

(X_U9C.91)   40.0000                  (X_U9C.92)  -40.0000                      

(X_U9C.99)    4.0000                  




    VOLTAGE SOURCE CURRENTS
    NAME         CURRENT

    V_V1        -1.370E-01
    V_V2         1.007E-02
    X_U2B.vb    -1.200E-08
    X_U2B.vc     3.679E-13
    X_U2B.ve     1.429E-11
    X_U2B.vlim   3.080E-03
    X_U2B.vlp   -3.692E-11
    X_U2B.vln   -4.308E-11
    X_U9C.vb    -1.537E-05
    X_U9C.vc    -2.035E-02
    X_U9C.ve     6.365E-12
    X_U9C.vlim   4.061E-02
[...]

(N23197)    1.5397 (N23367)    7.2962 (N23379)    6.7930 (N23549)     .0057     

(N23569)     .8252 (N23667)    7.2984 (N23743)    4.4891 (SENZOR)    6.1317     

(N229811)    3.3163                   (N231710)    1.9759                       

(N233530)    3.1073                   (N235350)     .0057                       

(N236530)    1.9159                   (X_U1B.6)    -.0012                       

(X_U1B.7)    6.1462                   (X_U1B.8)    6.1462                       

(X_U1B.9)    0.0000                   (X_U1B.a)    7.9971                       

(X_U1B.b)    -.0029                   (X_U2B.6)    -.0012                       

(X_U2B.7)    6.2854                   (X_U2B.8)    6.2854                       

(X_U2B.9)    0.0000                   (X_U2B.a)    7.9969                       

(X_U2B.b)    -.0031                   (X_U3C.6)-172.5E-06                       

(X_U3C.7)     .9114                   (X_U3C.8)     .9114                       

(X_U3C.9)    0.0000                   (X_U3C.a)    7.9999                       

(X_U3C.b)-150.4E-06                   (X_U4D.6) 13.56E-06                       

(X_U4D.7)     .0042                   (X_U4D.8)     .0042                       

(X_U4D.9)    0.0000                   (X_U4D.a)     .0029                       

(X_U4D.b)   -7.9971                   (X_U5C.6)    1.1936                       

(X_U5C.7)   -2.0244                   (X_U5C.8)   -2.0244                       

(X_U5C.9)    0.0000                   (X_U5C.a)     .0406                       

(X_U5C.b)     .0406                   (X_U6C.6)   -1.5331                       

(X_U6C.7)    9.3287                   (X_U6C.8)    9.3287                       

(X_U6C.9)    0.0000                   (X_U6C.a)    7.9594                       

(X_U6C.b)    -.0406                   (X_U7C.6)   -1.5331                       

(X_U7C.7)    9.3282                   (X_U7C.8)    9.3282                       

(X_U7C.9)    0.0000                   (X_U7C.a)    7.9594                       

(X_U7C.b)    -.0406                   (X_U8C.6)   -1.5331                       

(X_U8C.7)    9.3268                   (X_U8C.8)    9.3268                       

(X_U8C.9)    0.0000                   (X_U8C.a)    7.9594                       

(X_U8C.b)    -.0406                   (X_U9C.6)   -1.5331                       

(X_U9C.7)    9.3290                   (X_U9C.8)    9.3290                       

(X_U9C.9)    0.0000                   (X_U9C.a)    7.9594                       

(X_U9C.b)    -.0406                   (DESCAZUT)    5.9997                      

(X_U1B.10)    6.6073                  (X_U1B.11)   -7.9605                      

(X_U1B.12)   -7.9626                  (X_U1B.13)    6.5934                      

(X_U1B.14)    6.5942                  (X_U1B.53)    6.5000                      

(X_U1B.54)   -7.1780                  (X_U1B.90)    2.9299                      

(X_U1B.91)   40.0000                  (X_U1B.92)  -40.0000                      

(X_U1B.99)    0.0000                  (X_U2B.10)    6.7393                      

(X_U2B.11)   -7.9605                  (X_U2B.12)   -7.9627                      

(X_U2B.13)    6.7255                  (X_U2B.14)    6.7262                      

(X_U2B.53)    6.5000                  (X_U2B.54)   -7.1780                      

(X_U2B.90)    3.0742                  (X_U2B.91)   40.0000                      

(X_U2B.92)  -40.0000                  (X_U2B.99)    0.0000                      

(X_U3C.10)     .7583                  (X_U3C.11)   -7.9602                      

(X_U3C.12)   -7.9605                  (X_U3C.13)     .7444                      

(X_U3C.14)     .7444                  (X_U3C.53)    6.5000                      

(X_U3C.54)   -7.1780                  (X_U3C.90)     .1496                      

(X_U3C.91)   40.0000                  (X_U3C.92)  -40.0000                      

(X_U3C.99)    0.0000                  (X_U4D.10)    3.6884                      

(X_U4D.11)   -7.9604                  (X_U4D.12)   -7.9615                      

(X_U4D.13)    3.6745                  (X_U4D.14)    3.6749                      

(X_U4D.53)    6.5000                  (X_U4D.54)   -7.1780                      

(X_U4D.90)   -2.9301                  (X_U4D.91)   40.0000                      

(X_U4D.92)  -40.0000                  (X_U4D.99)    0.0000                      

(X_U5C.10)    1.4599                  (X_U5C.11)     .0082                      

(X_U5C.12)     .0724                  (X_U5C.13)    1.4570                      

(X_U5C.14)    1.4346                  (X_U5C.53)    6.5000                      

(X_U5C.54)     .8220                  (X_U5C.90)  -40.6030                      

(X_U5C.91)   40.0000                  (X_U5C.92)  -40.0000                      

(X_U5C.99)    4.0000                  (X_U6C.10)    1.5442                      

(X_U6C.11)     .0806                  (X_U6C.12) 16.37E-09                      

(X_U6C.13)    1.5160                  (X_U6C.14)    1.5442                      

(X_U6C.53)    6.5000                  (X_U6C.54)     .8220                      

(X_U6C.90)   40.6120                  (X_U6C.91)   40.0000                      

(X_U6C.92)  -40.0000                  (X_U6C.99)    4.0000                      

(X_U7C.10)    1.5442                  (X_U7C.11)     .0806                      

(X_U7C.12) 47.10E-09                  (X_U7C.13)    1.5160                      

(X_U7C.14)    1.5442                  (X_U7C.53)    6.5000                      

(X_U7C.54)     .8220                  (X_U7C.90)   40.6120                      

(X_U7C.91)   40.0000                  (X_U7C.92)  -40.0000                      

(X_U7C.99)    4.0000                  (X_U8C.10)    1.5442                      

(X_U8C.11)     .0806                  (X_U8C.12) 44.23E-09                      

(X_U8C.13)    1.5160                  (X_U8C.14)    1.5442                      

(X_U8C.53)    6.5000                  (X_U8C.54)     .8220                      

(X_U8C.90)   40.6120                  (X_U8C.91)   40.0000                      

(X_U8C.92)  -40.0000                  (X_U8C.99)    4.0000                      

(X_U9C.10)    1.5442                  (X_U9C.11)     .0806                      

(X_U9C.12) 32.01E-09                  (X_U9C.13)    1.5160                      

(X_U9C.14)    1.5442                  (X_U9C.53)    6.5000                      

(X_U9C.54)     .8220                  (X_U9C.90)   40.6120                      

(X_U9C.91)   40.0000                  (X_U9C.92)  -40.0000                      

(X_U9C.99)    4.0000                  




    VOLTAGE SOURCE CURRENTS
    NAME         CURRENT

    V_V1        -1.170E-01
    V_V2         1.004E-02
    X_U2B.vb    -1.200E-08
    X_U2B.vc     3.691E-13
    X_U2B.ve     1.429E-11
    X_U2B.vlim   3.074E-03
    X_U2B.vlp   -3.693E-11
    X_U2B.vln   -4.308E-11
    X_U9C.vb    -1.533E-05
    X_U9C.vc    -2.038E-02
    X_U9C.ve     6.365E-12
    X_U9C.vlim   4.061E-02
    X_U9C.vlp    1.523E-05
    X_U9C.vln   -8.062E-11
    X_U3C.vb    -1.725E-09
    X_U3C.vc     5.597E-12
    X_U3C.ve     9.065E-12
    X_U3C.vlim   1.496E-04
    X_U3C.vlp   -3.985E-11
    X_U3C.vln   -4.015E-11
    X_U1B.vb    -1.173E-08
    X_U1B.vc     5.011E-13
    X_U1B.ve     1.416E-11
    X_U1B.vlim   2.930E-03
    X_U1B.vlp   -3.707E-11
    X_U1B.vln   -4.293E-11
    X_U8C.vb    -1.533E-05
    X_U8C.vc    -1.870E-02
    X_U8C.ve     6.362E-12
    X_U8C.vlim   4.061E-02
    X_U8C.vlp    1.532E-05
    X_U8C.vln   -8.062E-11
    X_U6C.vb    -1.533E-05
    X_U6C.vc    -2.012E-02
    X_U6C.ve     6.364E-12
    X_U6C.vlim   4.061E-02
    X_U6C.vlp    1.525E-05
    X_U6C.vln   -8.062E-11
    X_U5C.vb     1.194E-05
    X_U5C.vc     6.495E-12
    X_U5C.ve    -4.060E-02
    X_U5C.vlim  -4.060E-02
    X_U5C.vlp   -8.060E-11
    X_U5C.vln    1.062E-05
    X_U7C.vb    -1.533E-05
    X_U7C.vc    -1.972E-02
    X_U7C.ve     6.364E-12
    X_U7C.vlim   4.061E-02
    X_U7C.vlp    1.527E-05
    X_U7C.vln   -8.062E-11
    X_U4D.vb     1.356E-10
    X_U4D.vc     6.350E-12
    X_U4D.ve     8.312E-12
    X_U4D.vlim  -2.930E-03
    X_U4D.vlp   -4.293E-11
    X_U4D.vln   -3.707E-11

    TOTAL POWER DISSIPATION   1.16E+00  WATTS


**** 05/21/21 13:13:59 ****** PSpice 17.2.0 (March 2016) ****** ID# 0 ********

 ** Profile: "SCHEMATIC1-dc"  [ D:\Homeworks\An 2 sem 2\Tehnici CAD\Proiect-final\Final-Corect\proiect_cad-pspicefiles\schematic1\dc.


 ****     INITIAL TRANSIENT SOLUTION       TEMPERATURE =   27.000 DEG C

                      MONTE CARLO PASS 10

******************************************************************************



 NODE   VOLTAGE     NODE   VOLTAGE     NODE   VOLTAGE     NODE   VOLTAGE


(  LED)     .6637  (  VCC)    8.0000  ( -VCC)   -8.0000  (N22369)    6.1305     

(N22401)     .1117 (N22473)    5.9872 (N22571)    3.0447 (N22583)     .1119     

(N22863)    3.0459 (N23003)    7.2976 (N23015)    7.3274 (N23185)    7.2983     

(N23197)    1.5665 (N23367)    7.2960 (N23379)    6.7845 (N23549)    7.2983     

(N23569)     .8364 (N23667)    7.2987 (N23743)    4.4695 (SENZOR)    6.1282     

(N229811)    3.3159                   (N231710)    1.9748                       

(N233530)    3.1094                   (N235350)    1.9812                       

(N236530)    1.9148                   (X_U1B.6)    -.0012                       

(X_U1B.7)    6.1316                   (X_U1B.8)    6.1316                       

(X_U1B.9)    0.0000                   (X_U1B.a)    7.9971                       

(X_U1B.b)    -.0029                   (X_U2B.6)    -.0012                       

(X_U2B.7)    6.2817                   (X_U2B.8)    6.2817                       

(X_U2B.9)    0.0000                   (X_U2B.a)    7.9969                       

(X_U2B.b)    -.0031                   (X_U3C.6)-126.7E-06                       

(X_U3C.7)     .6693                   (X_U3C.8)     .6693                       

(X_U3C.9)    0.0000                   (X_U3C.a)    7.9999                       

(X_U3C.b)-111.9E-06                   (X_U4D.6) 20.92E-06                       

(X_U4D.7)    -.0347                   (X_U4D.8)    -.0347                       

(X_U4D.9)    0.0000                   (X_U4D.a)     .0029                       

(X_U4D.b)   -7.9971                   (X_U5C.6)   -1.5250                       

(X_U5C.7)    9.3289                   (X_U5C.8)    9.3289                       

(X_U5C.9)    0.0000                   (X_U5C.a)    7.9594                       

(X_U5C.b)    -.0406                   (X_U6C.6)   -1.5363                       

(X_U6C.7)    9.3289                   (X_U6C.8)    9.3289                       

(X_U6C.9)    0.0000                   (X_U6C.a)    7.9594                       

(X_U6C.b)    -.0406                   (X_U7C.6)   -1.5363                       

(X_U7C.7)    9.3282                   (X_U7C.8)    9.3282                       

(X_U7C.9)    0.0000                   (X_U7C.a)    7.9594                       

(X_U7C.b)    -.0406                   (X_U8C.6)   -1.5363                       

(X_U8C.7)    9.3266                   (X_U8C.8)    9.3266                       

(X_U8C.9)    0.0000                   (X_U8C.a)    7.9594                       

(X_U8C.b)    -.0406                   (X_U9C.6)   -1.5363                       

(X_U9C.7)    9.3293                   (X_U9C.8)    9.3293                       

(X_U9C.9)    0.0000                   (X_U9C.a)    7.9594                       

(X_U9C.b)    -.0406                   (DESCAZUT)    5.9850                      

(X_U1B.10)    6.5926                  (X_U1B.11)   -7.9605                      

(X_U1B.12)   -7.9626                  (X_U1B.13)    6.5787                      

(X_U1B.14)    6.5795                  (X_U1B.53)    6.5000                      

(X_U1B.54)   -7.1780                  (X_U1B.90)    2.9327                      

(X_U1B.91)   40.0000                  (X_U1B.92)  -40.0000                      

(X_U1B.99)    0.0000                  (X_U2B.10)    6.7358                      

(X_U2B.11)   -7.9605                  (X_U2B.12)   -7.9627                      

(X_U2B.13)    6.7220                  (X_U2B.14)    6.7227                      

(X_U2B.53)    6.5000                  (X_U2B.54)   -7.1780                      

(X_U2B.90)    3.0688                  (X_U2B.91)   40.0000                      

(X_U2B.92)  -40.0000                  (X_U2B.99)    0.0000                      

(X_U3C.10)     .7194                  (X_U3C.11)   -7.9602                      

(X_U3C.12)   -7.9605                  (X_U3C.13)     .7055                      

(X_U3C.14)     .7056                  (X_U3C.53)    6.5000                      

(X_U3C.54)   -7.1780                  (X_U3C.90)     .1111                      

(X_U3C.91)   40.0000                  (X_U3C.92)  -40.0000                      

(X_U3C.99)    0.0000                  (X_U4D.10)    3.6524                      

(X_U4D.11)   -7.9604                  (X_U4D.12)   -7.9615                      

(X_U4D.13)    3.6385                  (X_U4D.14)    3.6389                      

(X_U4D.53)    6.5000                  (X_U4D.54)   -7.1780                      

(X_U4D.90)   -2.9329                  (X_U4D.91)   40.0000                      

(X_U4D.92)  -40.0000                  (X_U4D.99)    0.0000                      

(X_U5C.10)    1.3039                  (X_U5C.11)     .0803                      

(X_U5C.12) 299.5E-06                  (X_U5C.13)    1.2758                      

(X_U5C.14)    1.3038                  (X_U5C.53)    6.5000                      

(X_U5C.54)     .8220                  (X_U5C.90)   40.6120                      

(X_U5C.91)   40.0000                  (X_U5C.92)  -40.0000                      

(X_U5C.99)    4.0000                  (X_U6C.10)    1.3041                      

(X_U6C.11)     .0806                  (X_U6C.12) 15.23E-09                      

(X_U6C.13)    1.2759                  (X_U6C.14)    1.3041                      

(X_U6C.53)    6.5000                  (X_U6C.54)     .8220                      

(X_U6C.90)   40.6120                  (X_U6C.91)   40.0000                      

(X_U6C.92)  -40.0000                  (X_U6C.99)    4.0000                      

(X_U7C.10)    1.3041                  (X_U7C.11)     .0806                      

(X_U7C.12) 45.79E-09                  (X_U7C.13)    1.2759                      

(X_U7C.14)    1.3041                  (X_U7C.53)    6.5000                      

(X_U7C.54)     .8220                  (X_U7C.90)   40.6120                      

(X_U7C.91)   40.0000                  (X_U7C.92)  -40.0000                      

(X_U7C.99)    4.0000                  (X_U8C.10)    1.3041                      

(X_U8C.11)     .0806                  (X_U8C.12) 42.91E-09                      

(X_U8C.13)    1.2759                  (X_U8C.14)    1.3041                      

(X_U8C.53)    6.5000                  (X_U8C.54)     .8220                      

(X_U8C.90)   40.6120                  (X_U8C.91)   40.0000                      

(X_U8C.92)  -40.0000                  (X_U8C.99)    4.0000                      

(X_U9C.10)    1.3041                  (X_U9C.11)     .0806                      

(X_U9C.12) 30.63E-09                  (X_U9C.13)    1.2759                      

(X_U9C.14)    1.3041                  (X_U9C.53)    6.5000                      

(X_U9C.54)     .8220                  (X_U9C.90)   40.6120                      

(X_U9C.91)   40.0000                  (X_U9C.92)  -40.0000                      

(X_U9C.99)    4.0000                  




    VOLTAGE SOURCE CURRENTS
    NAME         CURRENT

    V_V1        -1.369E-01
    V_V2         1.004E-02
    X_U2B.vb    -1.199E-08
    X_U2B.vc     3.726E-13
    X_U2B.ve     1.429E-11
    X_U2B.vlim   3.069E-03
    X_U2B.vlp   -3.693E-11
    X_U2B.vln   -4.307E-11
    X_U9C.vb    -1.536E-05
    X_U9C.vc    -2.063E-02
    X_U9C.ve     6.365E-12
    X_U9C.vlim   4.061E-02
    X_U9C.vlp    1.526E-05
    X_U9C.vln   -8.062E-11
    X_U3C.vb    -1.267E-09
    X_U3C.vc     5.837E-12
    X_U3C.ve     8.825E-12
    X_U3C.vlim   1.111E-04
    X_U3C.vlp   -3.989E-11
    X_U3C.vln   -4.012E-11
    X_U1B.vb    -1.170E-08
    X_U1B.vc     5.158E-13
    X_U1B.ve     1.415E-11
    X_U1B.vlim   2.933E-03
    X_U1B.vlp   -3.707E-11
    X_U1B.vln   -4.294E-11
    X_U8C.vb    -1.536E-05
    X_U8C.vc    -1.858E-02
    X_U8C.ve     6.362E-12
    X_U8C.vlim   4.061E-02
    X_U8C.vlp    1.536E-05
    X_U8C.vln   -8.062E-11
    X_U6C.vb    -1.536E-05
    X_U6C.vc    -2.028E-02
    X_U6C.ve     6.365E-12
    X_U6C.vlim   4.061E-02
    X_U6C.vlp    1.527E-05
    X_U6C.vln   -8.062E-11
    X_U5C.vb    -1.525E-05
    X_U5C.vc    -2.027E-02
    X_U5C.ve     6.365E-12
    X_U5C.vlim   4.061E-02
    X_U5C.vlp    1.515E-05
    X_U5C.vln   -8.062E-11
    X_U7C.vb    -1.536E-05
    X_U7C.vc    -1.976E-02
    X_U7C.ve     6.364E-12
    X_U7C.vlim   4.061E-02
    X_U7C.vlp    1.530E-05
    X_U7C.vln   -8.062E-11
    X_U4D.vb     2.092E-10
    X_U4D.vc     6.389E-12
    X_U4D.ve     8.273E-12
    X_U4D.vlim  -2.933E-03
    X_U4D.vlp   -4.293E-11
    X_U4D.vln   -3.707E-11

    TOTAL POWER DISSIPATION   1.32E+00  WATTS


**** 05/21/21 13:13:59 ****** PSpice 17.2.0 (March 2016) ****** ID# 0 ********

 ** Profile: "SCHEMATIC1-dc"  [ D:\Homeworks\An 2 sem 2\Tehnici CAD\Proiect-final\Final-Corect\proiect_cad-pspicefiles\schematic1\dc.


 ****     SORTED DEVIATIONS OF V(LED)      TEMPERATURE =   27.000 DEG C

                      MONTE CARLO SUMMARY

******************************************************************************





Mean Deviation =    -.0671
Sigma          =     .153 

 RUN                    MAX DEVIATION FROM NOMINAL

Pass    2                .2856  (1.87 sigma)  lower  at T =  200.0000E-12
                        (  64.937% of Nominal)

Pass    6                .2177  (1.42 sigma)  lower  at T =  200.0000E-12
                        (  73.273% of Nominal)

Pass    7                .1682  (1.10 sigma)  lower  at T =  200.0000E-12
                        (  79.344% of Nominal)

Pass    8                .1587  (1.04 sigma)  higher  at T =  200.0000E-12
                        ( 119.49% of Nominal)

Pass   10                .1508  ( .99 sigma)  lower  at T =  200.0000E-12
                        (  81.49 % of Nominal)

Pass    5                .1483  ( .97 sigma)  higher  at T =  200.0000E-12
                        ( 118.21% of Nominal)

Pass    3                .0989  ( .65 sigma)  lower  at T =  200.0000E-12
                        (  87.853% of Nominal)

Pass    9                .0894  ( .58 sigma)  higher  at T =  200.0000E-12
                        ( 110.98% of Nominal)

Pass    4                .0792  ( .52 sigma)  lower  at T =  200.0000E-12
                        (  90.275% of Nominal)



          JOB CONCLUDED

**** 05/21/21 13:13:59 ****** PSpice 17.2.0 (March 2016) ****** ID# 0 ********

 ** Profile: "SCHEMATIC1-dc"  [ D:\Homeworks\An 2 sem 2\Tehnici CAD\Proiect-final\Final-Corect\proiect_cad-pspicefiles\schematic1\dc.


 ****     JOB STATISTICS SUMMARY


******************************************************************************



  Total job time (using Solver 1)   =         .91
