
**** 05/21/21 14:02:06 ****** PSpice 17.2.0 (March 2016) ****** ID# 0 ********

 ** Profile: "SCHEMATIC1-monte"  [ D:\Homeworks\An 2 sem 2\Tehnici CAD\Proiect-final\Final-Corect\proiect_cad-PSpiceFiles\SCHEMATIC1\


 ****     CIRCUIT DESCRIPTION


******************************************************************************




** Creating circuit file "monte.cir" 
** WARNING: THIS AUTOMATICALLY GENERATED FILE MAY BE OVERWRITTEN BY SUBSEQUENT SIMULATIONS

*Libraries: 
* Profile Libraries :
* Local Libraries :
* From [PSPICE NETLIST] section of D:\Homeworks\An 2 sem 2\Tehnici CAD\Projects\cdssetup\OrCAD_PSpice\17.2.0\PSpice.ini file:
.lib "D:\Homeworks\An 2 sem 2\Tehnici CAD\Proiect-final\Final-Corect\leduri.lib" 
.lib "nom.lib" 

*Analysis directives: 
.TRAN  0 1000ns 0 
.WCASE TRAN v([LED]) YMAX VARY BOTH  HI 
.OPTIONS ADVCONV
.PROBE64 V(alias(*)) I(alias(*)) W(alias(*)) D(alias(*)) NOISE(alias(*)) 
.INC "..\SCHEMATIC1.net" 



**** INCLUDING SCHEMATIC1.net ****
* source PROIECT_CAD
R_R22         N23185 N231710 R_R22 261 TC=0,0 
.model        R_R22 RES R=1 DEV=1% TC1=0 TC2=0
R_R7         N22863 0 R_R7 1k TC=0,0 
.model        R_R7 RES R=1 DEV=1% TC1=0 TC2=0
X_U2B         N22369 SENZOR VCC -VCC SENZOR LM324
R_R21         0 N23569 R_R21 499 TC=0,0 
.model        R_R21 RES R=1 DEV=1% TC1=0 TC2=0
X_U9C         N23743 LED VCC 0 N23667 LM324
X_U3C         N22583 N22401 VCC -VCC LED LM324
R_R10         N22401 LED R_R10 4.99k TC=0,0 
.model        R_R10 RES R=1 DEV=1% TC1=0 TC2=0
R_R17         N23743 VCC R_R17 1.58k TC=0,0 
.model        R_R17 RES R=1 DEV=1% TC1=0 TC2=0
R_R25         N229811 N23003 R_R25 191 TC=0,0 
.model        R_R25 RES R=1 DEV=1% TC1=0 TC2=0
X_U1B         N22473 DESCAZUT VCC -VCC DESCAZUT LM324
V_V1         VCC 0 8
R_R6         N22863 SENZOR R_R6 1k TC=0,0 
.model        R_R6 RES R=1 DEV=1% TC1=0 TC2=0
R_R18         0 N23743 R_R18 2k TC=0,0 
.model        R_R18 RES R=1 DEV=1% TC1=0 TC2=0
R_R20         N23569 VCC R_R20 4.3k TC=0,0 
.model        R_R20 RES R=1 DEV=1% TC1=0 TC2=0
R_R4         N22473 VCC R_R4 665 TC=0,0 
.model        R_R4 RES R=1 DEV=1% TC1=0 TC2=0
R_R26         N23015 VCC R_R26 182 TC=0,0 
.model        R_R26 RES R=1 DEV=1% TC1=0 TC2=0
X_U8C         N23379 LED VCC 0 N23367 LM324
R_R14         N23379 VCC R_R14 357 TC=0,0 
.model        R_R14 RES R=1 DEV=1% TC1=0 TC2=0
R_R8         N22583 N22571  1k TC=0,0 
R_R23         N23197 VCC R_R23 4.12k TC=0,0 
.model        R_R23 RES R=1 DEV=1% TC1=0 TC2=0
R_R24         0 N23197 R_R24 1k TC=0,0 
.model        R_R24 RES R=1 DEV=1% TC1=0 TC2=0
V_V2         -VCC 0 -8
R_R13         N23367 N233530 R_R13 191 TC=0,0 
.model        R_R13 RES R=1 DEV=1% TC1=0 TC2=0
R_R15         0 N23379 R_R15 2k TC=0,0 
.model        R_R15 RES R=1 DEV=1% TC1=0 TC2=0
R_R2         N22369 VCC R_R2 12.1k TC=0,0 
.model        R_R2 RES R=1 DEV=1% TC1=0 TC2=0
R_R16         N23667 N236530 R_R16 267 TC=0,0 
.model        R_R16 RES R=1 DEV=1% TC1=0 TC2=0
R_R27         0 N23015 R_R27 2k TC=0,0 
.model        R_R27 RES R=1 DEV=1% TC1=0 TC2=0
R_R5         N22571 DESCAZUT R_R5 1k TC=0,0 
.model        R_R5 RES R=1 DEV=1% TC1=0 TC2=0
X_U6C         N23197 LED VCC 0 N23185 LM324
R_R19         N23549 N235350 R_R19 261 TC=0,0 
.model        R_R19 RES R=1 DEV=1% TC1=0 TC2=0
X_U5C         N23569 LED VCC 0 N23549 LM324
X_U7C         N23015 LED VCC 0 N23003 LM324
X_U4D         N22863 N22571 VCC -VCC N22583 LM324
R_R3         0 N22473 R_R3 2k TC=0,0 
.model        R_R3 RES R=1 DEV=1% TC1=0 TC2=0
R_R9         N22401 0 R_R9 1k TC=0,0 
.model        R_R9 RES R=1 DEV=1% TC1=0 TC2=0
D_D1         N229811 0 L_VERDE 
D_D2         N233530 0 L_ALBASTRU 
D_D3         N236530 0 L_PORTOCALIU 
D_D4         N231710 0 L_GALBEN 
D_D5         N235350 0 L_ROSU 
X_R28         0 0 N22369 POT PARAMS: SET={cursor} VALUE=100K
.PARAM  cursor=0.4

**** RESUMING monte.cir ****
.END

**** 05/21/21 14:02:06 ****** PSpice 17.2.0 (March 2016) ****** ID# 0 ********

 ** Profile: "SCHEMATIC1-monte"  [ D:\Homeworks\An 2 sem 2\Tehnici CAD\Proiect-final\Final-Corect\proiect_cad-PSpiceFiles\SCHEMATIC1\


 ****     Diode MODEL PARAMETERS


******************************************************************************




               L_VERDE         L_ALBASTRU      L_PORTOCALIU    L_GALBEN        
          IS  394.470000E-15   16.925000E-18   10.000000E-21   10.000000E-21 
           N    4.9992          3.1189          1.7228          1.7309       
          RS    5.9117         13.701           1.8616          4.3078       


               L_ROSU          X_U2B.dx        X_U2B.dy        X_U9C.dx        
          IS   10.000000E-21  800.000000E-18  800.000000E-18  800.000000E-18 
           N    1.737                                                        
          RS    4.2925          1               1.000000E-03    1            
         CJO                                   10.000000E-12                 


               X_U9C.dy        X_U3C.dx        X_U3C.dy        X_U1B.dx        
          IS  800.000000E-18  800.000000E-18  800.000000E-18  800.000000E-18 
          RS    1.000000E-03    1               1.000000E-03    1            
         CJO   10.000000E-12                   10.000000E-12                 


               X_U1B.dy        X_U8C.dx        X_U8C.dy        X_U6C.dx        
          IS  800.000000E-18  800.000000E-18  800.000000E-18  800.000000E-18 
          RS    1.000000E-03    1               1.000000E-03    1            
         CJO   10.000000E-12                   10.000000E-12                 


               X_U6C.dy        X_U5C.dx        X_U5C.dy        X_U7C.dx        
          IS  800.000000E-18  800.000000E-18  800.000000E-18  800.000000E-18 
          RS    1.000000E-03    1               1.000000E-03    1            
         CJO   10.000000E-12                   10.000000E-12                 


               X_U7C.dy        X_U4D.dx        X_U4D.dy        
          IS  800.000000E-18  800.000000E-18  800.000000E-18 
          RS    1.000000E-03    1               1.000000E-03 
         CJO   10.000000E-12                   10.000000E-12 


**** 05/21/21 14:02:06 ****** PSpice 17.2.0 (March 2016) ****** ID# 0 ********

 ** Profile: "SCHEMATIC1-monte"  [ D:\Homeworks\An 2 sem 2\Tehnici CAD\Proiect-final\Final-Corect\proiect_cad-PSpiceFiles\SCHEMATIC1\


 ****     BJT MODEL PARAMETERS


******************************************************************************




               X_U2B.qx        X_U9C.qx        X_U3C.qx        X_U1B.qx        
               PNP             PNP             PNP             PNP             
       LEVEL    1               1               1               1            
          IS  800.000000E-18  800.000000E-18  800.000000E-18  800.000000E-18 
          BF  166.7           166.7           166.7           166.7          
          NF    1               1               1               1            
          BR    1               1               1               1            
          NR    1               1               1               1            
         ISS    0               0               0               0            
          RE    0               0               0               0            
          RC    0               0               0               0            
         CJE    0               0               0               0            
         VJE     .75             .75             .75             .75         
         CJC    0               0               0               0            
         VJC     .75             .75             .75             .75         
         MJC     .33             .33             .33             .33         
        XCJC    1               1               1               1            
         CJS    0               0               0               0            
         VJS     .75             .75             .75             .75         
          KF    0               0               0               0            
          AF    1               1               1               1            
          CN    2.2             2.2             2.2             2.2          
           D     .52             .52             .52             .52         


               X_U8C.qx        X_U6C.qx        X_U5C.qx        X_U7C.qx        
               PNP             PNP             PNP             PNP             
       LEVEL    1               1               1               1            
          IS  800.000000E-18  800.000000E-18  800.000000E-18  800.000000E-18 
          BF  166.7           166.7           166.7           166.7          
          NF    1               1               1               1            
          BR    1               1               1               1            
          NR    1               1               1               1            
         ISS    0               0               0               0            
          RE    0               0               0               0            
          RC    0               0               0               0            
         CJE    0               0               0               0            
         VJE     .75             .75             .75             .75         
         CJC    0               0               0               0            
         VJC     .75             .75             .75             .75         
         MJC     .33             .33             .33             .33         
        XCJC    1               1               1               1            
         CJS    0               0               0               0            
         VJS     .75             .75             .75             .75         
          KF    0               0               0               0            
          AF    1               1               1               1            
          CN    2.2             2.2             2.2             2.2          
           D     .52             .52             .52             .52         


               X_U4D.qx        
               PNP             
       LEVEL    1            
          IS  800.000000E-18 
          BF  166.7          
          NF    1            
          BR    1            
          NR    1            
         ISS    0            
          RE    0            
          RC    0            
         CJE    0            
         VJE     .75         
         CJC    0            
         VJC     .75         
         MJC     .33         
        XCJC    1            
         CJS    0            
         VJS     .75         
          KF    0            
          AF    1            
          CN    2.2          
           D     .52         


**** 05/21/21 14:02:06 ****** PSpice 17.2.0 (March 2016) ****** ID# 0 ********

 ** Profile: "SCHEMATIC1-monte"  [ D:\Homeworks\An 2 sem 2\Tehnici CAD\Proiect-final\Final-Corect\proiect_cad-PSpiceFiles\SCHEMATIC1\


 ****     Resistor MODEL PARAMETERS


******************************************************************************




               R_R22           R_R7            R_R21           R_R10           
           R    1               1               1               1            


               R_R17           R_R25           R_R6            R_R18           
           R    1               1               1               1            


               R_R20           R_R4            R_R26           R_R14           
           R    1               1               1               1            


               R_R23           R_R24           R_R13           R_R15           
           R    1               1               1               1            


               R_R2            R_R16           R_R27           R_R5            
           R    1               1               1               1            


               R_R19           R_R3            R_R9            
           R    1               1               1            


**** 05/21/21 14:02:06 ****** PSpice 17.2.0 (March 2016) ****** ID# 0 ********

 ** Profile: "SCHEMATIC1-monte"  [ D:\Homeworks\An 2 sem 2\Tehnici CAD\Proiect-final\Final-Corect\proiect_cad-PSpiceFiles\SCHEMATIC1\


 ****     Current Controlled Switch MODEL PARAMETERS


******************************************************************************




               X_U2B.sw2       X_U2B.sw1       X_U2B.sw3       X_U2B.sw4       
         RON    1               1               1               1            
        ROFF   10.000000E+06   10.000000E+06   10.000000E+06   10.000000E+06 
         ION    0              -1.000000E-06   -1.000000E-06    0            
        IOFF   -1.000000E-06    0               0              -1.000000E-06 


               X_U9C.sw2       X_U9C.sw1       X_U9C.sw3       X_U9C.sw4       
         RON    1               1               1               1            
        ROFF   10.000000E+06   10.000000E+06   10.000000E+06   10.000000E+06 
         ION    0              -1.000000E-06   -1.000000E-06    0            
        IOFF   -1.000000E-06    0               0              -1.000000E-06 


               X_U3C.sw2       X_U3C.sw1       X_U3C.sw3       X_U3C.sw4       
         RON    1               1               1               1            
        ROFF   10.000000E+06   10.000000E+06   10.000000E+06   10.000000E+06 
         ION    0              -1.000000E-06   -1.000000E-06    0            
        IOFF   -1.000000E-06    0               0              -1.000000E-06 


               X_U1B.sw2       X_U1B.sw1       X_U1B.sw3       X_U1B.sw4       
         RON    1               1               1               1            
        ROFF   10.000000E+06   10.000000E+06   10.000000E+06   10.000000E+06 
         ION    0              -1.000000E-06   -1.000000E-06    0            
        IOFF   -1.000000E-06    0               0              -1.000000E-06 


               X_U8C.sw2       X_U8C.sw1       X_U8C.sw3       X_U8C.sw4       
         RON    1               1               1               1            
        ROFF   10.000000E+06   10.000000E+06   10.000000E+06   10.000000E+06 
         ION    0              -1.000000E-06   -1.000000E-06    0            
        IOFF   -1.000000E-06    0               0              -1.000000E-06 


               X_U6C.sw2       X_U6C.sw1       X_U6C.sw3       X_U6C.sw4       
         RON    1               1               1               1            
        ROFF   10.000000E+06   10.000000E+06   10.000000E+06   10.000000E+06 
         ION    0              -1.000000E-06   -1.000000E-06    0            
        IOFF   -1.000000E-06    0               0              -1.000000E-06 


               X_U5C.sw2       X_U5C.sw1       X_U5C.sw3       X_U5C.sw4       
         RON    1               1               1               1            
        ROFF   10.000000E+06   10.000000E+06   10.000000E+06   10.000000E+06 
         ION    0              -1.000000E-06   -1.000000E-06    0            
        IOFF   -1.000000E-06    0               0              -1.000000E-06 


               X_U7C.sw2       X_U7C.sw1       X_U7C.sw3       X_U7C.sw4       
         RON    1               1               1               1            
        ROFF   10.000000E+06   10.000000E+06   10.000000E+06   10.000000E+06 
         ION    0              -1.000000E-06   -1.000000E-06    0            
        IOFF   -1.000000E-06    0               0              -1.000000E-06 


               X_U4D.sw2       X_U4D.sw1       X_U4D.sw3       X_U4D.sw4       
         RON    1               1               1               1            
        ROFF   10.000000E+06   10.000000E+06   10.000000E+06   10.000000E+06 
         ION    0              -1.000000E-06   -1.000000E-06    0            
        IOFF   -1.000000E-06    0               0              -1.000000E-06 


**** 05/21/21 14:02:06 ****** PSpice 17.2.0 (March 2016) ****** ID# 0 ********

 ** Profile: "SCHEMATIC1-monte"  [ D:\Homeworks\An 2 sem 2\Tehnici CAD\Proiect-final\Final-Corect\proiect_cad-PSpiceFiles\SCHEMATIC1\


 ****     INITIAL TRANSIENT SOLUTION       TEMPERATURE =   27.000 DEG C

                      SENSITIVITY NOMINAL

******************************************************************************



 NODE   VOLTAGE     NODE   VOLTAGE     NODE   VOLTAGE     NODE   VOLTAGE


(  LED)     .8145  (  VCC)    8.0000  ( -VCC)   -8.0000  (N22369)    6.1424     

(N22401)     .1360 (N22473)    6.0038 (N22571)    3.0689 (N22583)     .1363     

(N22863)    3.0701 (N23003)    7.2976 (N23015)    7.3327 (N23185)    7.2982     

(N23197)    1.5625 (N23367)    7.2962 (N23379)    6.7883 (N23549)    7.2982     

(N23569)     .8319 (N23667)    7.2985 (N23743)    4.4693 (SENZOR)    6.1402     

(N229811)    3.3158                   (N231710)    1.9753                       

(N233530)    3.1075                   (N235350)    1.9814                       

(N236530)    1.9156                   (X_U1B.6)    -.0012                       

(X_U1B.7)    6.1482                   (X_U1B.8)    6.1482                       

(X_U1B.9)    0.0000                   (X_U1B.a)    7.9971                       

(X_U1B.b)    -.0029                   (X_U2B.6)    -.0012                       

(X_U2B.7)    6.2937                   (X_U2B.8)    6.2937                       

(X_U2B.9)    0.0000                   (X_U2B.a)    7.9969                       

(X_U2B.b)    -.0031                   (X_U3C.6)-155.5E-06                       

(X_U3C.7)     .8212                   (X_U3C.8)     .8212                       

(X_U3C.9)    0.0000                   (X_U3C.a)    7.9999                       

(X_U3C.b)-136.3E-06                   (X_U4D.6) 16.33E-06                       

(X_U4D.7)    -.0104                   (X_U4D.8)    -.0104                       

(X_U4D.9)    0.0000                   (X_U4D.a)     .0029                       

(X_U4D.b)   -7.9971                   (X_U5C.6)    -.3425                       

(X_U5C.7)    9.3265                   (X_U5C.8)    9.3265                       

(X_U5C.9)    0.0000                   (X_U5C.a)    7.9594                       

(X_U5C.b)    -.0406                   (X_U6C.6)   -1.5343                       

(X_U6C.7)    9.3288                   (X_U6C.8)    9.3288                       

(X_U6C.9)    0.0000                   (X_U6C.a)    7.9594                       

(X_U6C.b)    -.0406                   (X_U7C.6)   -1.5343                       

(X_U7C.7)    9.3282                   (X_U7C.8)    9.3282                       

(X_U7C.9)    0.0000                   (X_U7C.a)    7.9594                       

(X_U7C.b)    -.0406                   (X_U8C.6)   -1.5343                       

(X_U8C.7)    9.3268                   (X_U8C.8)    9.3268                       

(X_U8C.9)    0.0000                   (X_U8C.a)    7.9594                       

(X_U8C.b)    -.0406                   (X_U9C.6)   -1.5343                       

(X_U9C.7)    9.3291                   (X_U9C.8)    9.3291                       

(X_U9C.9)    0.0000                   (X_U9C.a)    7.9594                       

(X_U9C.b)    -.0406                   (DESCAZUT)    6.0016                      

(X_U1B.10)    6.6091                  (X_U1B.11)   -7.9605                      

(X_U1B.12)   -7.9626                  (X_U1B.13)    6.5953                      

(X_U1B.14)    6.5960                  (X_U1B.53)    6.5000                      

(X_U1B.54)   -7.1780                  (X_U1B.90)    2.9326                      

(X_U1B.91)   40.0000                  (X_U1B.92)  -40.0000                      

(X_U1B.99)    0.0000                  (X_U2B.10)    6.7477                      

(X_U2B.11)   -7.9605                  (X_U2B.12)   -7.9627                      

(X_U2B.13)    6.7339                  (X_U2B.14)    6.7347                      

(X_U2B.53)    6.5000                  (X_U2B.54)   -7.1780                      

(X_U2B.90)    3.0700                  (X_U2B.91)   40.0000                      

(X_U2B.92)  -40.0000                  (X_U2B.99)    0.0000                      

(X_U3C.10)     .7438                  (X_U3C.11)   -7.9602                      

(X_U3C.12)   -7.9605                  (X_U3C.13)     .7299                      

(X_U3C.14)     .7300                  (X_U3C.53)    6.5000                      

(X_U3C.54)   -7.1780                  (X_U3C.90)     .1355                      

(X_U3C.91)   40.0000                  (X_U3C.92)  -40.0000                      

(X_U3C.99)    0.0000                  (X_U4D.10)    3.6766                      

(X_U4D.11)   -7.9604                  (X_U4D.12)   -7.9615                      

(X_U4D.13)    3.6627                  (X_U4D.14)    3.6631                      

(X_U4D.53)    6.5000                  (X_U4D.54)   -7.1780                      

(X_U4D.90)   -2.9327                  (X_U4D.91)   40.0000                      

(X_U4D.92)  -40.0000                  (X_U4D.99)    0.0000                      

(X_U5C.10)    1.4309                  (X_U5C.11)     .0490                      

(X_U5C.12)     .0316                  (X_U5C.13)    1.4137                      

(X_U5C.14)    1.4198                  (X_U5C.53)    6.5000                      

(X_U5C.54)     .8220                  (X_U5C.90)   40.5670                      

(X_U5C.91)   40.0000                  (X_U5C.92)  -40.0000                      

(X_U5C.99)    4.0000                  (X_U6C.10)    1.4548                      

(X_U6C.11)     .0806                  (X_U6C.12) 16.01E-09                      

(X_U6C.13)    1.4266                  (X_U6C.14)    1.4548                      

(X_U6C.53)    6.5000                  (X_U6C.54)     .8220                      

(X_U6C.90)   40.6120                  (X_U6C.91)   40.0000                      

(X_U6C.92)  -40.0000                  (X_U6C.99)    4.0000                      

(X_U7C.10)    1.4548                  (X_U7C.11)     .0806                      

(X_U7C.12) 46.62E-09                  (X_U7C.13)    1.4266                      

(X_U7C.14)    1.4548                  (X_U7C.53)    6.5000                      

(X_U7C.54)     .8220                  (X_U7C.90)   40.6120                      

(X_U7C.91)   40.0000                  (X_U7C.92)  -40.0000                      

(X_U7C.99)    4.0000                  (X_U8C.10)    1.4548                      

(X_U8C.11)     .0806                  (X_U8C.12) 43.73E-09                      

(X_U8C.13)    1.4266                  (X_U8C.14)    1.4548                      

(X_U8C.53)    6.5000                  (X_U8C.54)     .8220                      

(X_U8C.90)   40.6120                  (X_U8C.91)   40.0000                      

(X_U8C.92)  -40.0000                  (X_U8C.99)    4.0000                      

(X_U9C.10)    1.4548                  (X_U9C.11)     .0806                      

(X_U9C.12) 31.43E-09                  (X_U9C.13)    1.4266                      

(X_U9C.14)    1.4548                  (X_U9C.53)    6.5000                      

(X_U9C.54)     .8220                  (X_U9C.90)   40.6120                      

(X_U9C.91)   40.0000                  (X_U9C.92)  -40.0000                      

(X_U9C.99)    4.0000                  




    VOLTAGE SOURCE CURRENTS
    NAME         CURRENT

    V_V1        -1.371E-01
    V_V2         1.004E-02
    X_U2B.vb    -1.201E-08
    X_U2B.vc     3.606E-13
    X_U2B.ve     1.430E-11
    X_U2B.vlim   3.070E-03
    X_U2B.vlp   -3.693E-11
    X_U2B.vln   -4.307E-11
    X_U9C.vb    -1.534E-05
    X_U9C.vc    -2.045E-02
    X_U9C.ve     6.365E-12
    X_U9C.vlim   4.061E-02
    X_U9C.vlp    1.524E-05
    X_U9C.vln   -8.062E-11
    X_U3C.vb    -1.555E-09
    X_U3C.vc     5.686E-12
    X_U3C.ve     8.976E-12
    X_U3C.vlim   1.355E-04
    X_U3C.vlp   -3.987E-11
    X_U3C.vln   -4.014E-11
    X_U1B.vb    -1.173E-08
    X_U1B.vc     4.992E-13
    X_U1B.ve     1.416E-11
    X_U1B.vlim   2.933E-03
    X_U1B.vlp   -3.707E-11
    X_U1B.vln   -4.294E-11
    X_U8C.vb    -1.534E-05
    X_U8C.vc    -1.868E-02
    X_U8C.ve     6.362E-12
    X_U8C.vlim   4.061E-02
    X_U8C.vlp    1.533E-05
    X_U8C.vln   -8.062E-11
    X_U6C.vb    -1.534E-05
    X_U6C.vc    -2.022E-02
    X_U6C.ve     6.365E-12
    X_U6C.vlim   4.061E-02
    X_U6C.vlp    1.525E-05
    X_U6C.vln   -8.062E-11
    X_U5C.vb    -3.425E-06
    X_U5C.vc    -2.020E-02
    X_U5C.ve     6.364E-12
    X_U5C.vlim   4.057E-02
    X_U5C.vlp    2.611E-06
    X_U5C.vln   -8.057E-11
    X_U7C.vb    -1.534E-05
    X_U7C.vc    -1.976E-02
    X_U7C.ve     6.364E-12
    X_U7C.vlim   4.061E-02
    X_U7C.vlp    1.528E-05
    X_U7C.vln   -8.062E-11
    X_U4D.vb     1.633E-10
    X_U4D.vc     6.365E-12
    X_U4D.ve     8.298E-12
    X_U4D.vlim  -2.933E-03
    X_U4D.vlp   -4.293E-11
    X_U4D.vln   -3.707E-11

    TOTAL POWER DISSIPATION   1.32E+00  WATTS

 NODE   VOLTAGE     NODE   VOLTAGE     NODE   VOLTAGE     NODE   VOLTAGE


(  LED)     .8145  (  VCC)    8.0000  ( -VCC)   -8.0000  (N22369)    6.1424     

(N22401)     .1360 (N22473)    6.0038 (N22571)    3.0689 (N22583)     .1363     

(N22863)    3.0701 (N23003)    7.2976 (N23015)    7.3327 (N23185)    7.2982     

(N23197)    1.5625 (N23367)    7.2962 (N23379)    6.7883 (N23549)    7.2982     

(N23569)     .8319 (N23667)    7.2985 (N23743)    4.4693 (SENZOR)    6.1402     

(N229811)    3.3158                   (N231710)    1.9751                       

(N233530)    3.1075                   (N235350)    1.9814                       

(N236530)    1.9156                   (X_U1B.6)    -.0012                       

(X_U1B.7)    6.1482                   (X_U1B.8)    6.1482                       

(X_U1B.9)    0.0000                   (X_U1B.a)    7.9971                       

(X_U1B.b)    -.0029                   (X_U2B.6)    -.0012                       

(X_U2B.7)    6.2937                   (X_U2B.8)    6.2937                       

(X_U2B.9)    0.0000                   (X_U2B.a)    7.9969                       

(X_U2B.b)    -.0031                   (X_U3C.6)-155.5E-06                       

(X_U3C.7)     .8212                   (X_U3C.8)     .8212                       

(X_U3C.9)    0.0000                   (X_U3C.a)    7.9999                       

(X_U3C.b)-136.3E-06                   (X_U4D.6) 16.33E-06                       

(X_U4D.7)    -.0104                   (X_U4D.8)    -.0104                       

(X_U4D.9)    0.0000                   (X_U4D.a)     .0029                       

(X_U4D.b)   -7.9971                   (X_U5C.6)    -.3425                       

(X_U5C.7)    9.3265                   (X_U5C.8)    9.3265                       

(X_U5C.9)    0.0000                   (X_U5C.a)    7.9594                       

(X_U5C.b)    -.0406                   (X_U6C.6)   -1.5343                       

(X_U6C.7)    9.3288                   (X_U6C.8)    9.3288                       

(X_U6C.9)    0.0000                   (X_U6C.a)    7.9594                       

(X_U6C.b)    -.0406                   (X_U7C.6)   -1.5343                       

(X_U7C.7)    9.3282                   (X_U7C.8)    9.3282                       

(X_U7C.9)    0.0000                   (X_U7C.a)    7.9594                       

(X_U7C.b)    -.0406                   (X_U8C.6)   -1.5343                       

(X_U8C.7)    9.3268                   (X_U8C.8)    9.3268                       

(X_U8C.9)    0.0000                   (X_U8C.a)    7.9594                       

(X_U8C.b)    -.0406                   (X_U9C.6)   -1.5343                       

(X_U9C.7)    9.3291                   (X_U9C.8)    9.3291                       

(X_U9C.9)    0.0000                   (X_U9C.a)    7.9594                       

(X_U9C.b)    -.0406                   (DESCAZUT)    6.0016                      

(X_U1B.10)    6.6091                  (X_U1B.11)   -7.9605                      

(X_U1B.12)   -7.9626                  (X_U1B.13)    6.5953                      

(X_U1B.14)    6.5960                  (X_U1B.53)    6.5000                      

(X_U1B.54)   -7.1780                  (X_U1B.90)    2.9326                      

(X_U1B.91)   40.0000                  (X_U1B.92)  -40.0000                      

(X_U1B.99)    0.0000                  (X_U2B.10)    6.7477                      

(X_U2B.11)   -7.9605                  (X_U2B.12)   -7.9627                      

(X_U2B.13)    6.7339                  (X_U2B.14)    6.7347                      

(X_U2B.53)    6.5000                  (X_U2B.54)   -7.1780                      

(X_U2B.90)    3.0700                  (X_U2B.91)   40.0000                      

(X_U2B.92)  -40.0000                  (X_U2B.99)    0.0000                      

(X_U3C.10)     .7438                  (X_U3C.11)   -7.9602                      

(X_U3C.12)   -7.9605                  (X_U3C.13)     .7299                      

(X_U3C.14)     .7300                  (X_U3C.53)    6.5000                      

(X_U3C.54)   -7.1780                  (X_U3C.90)     .1355                      

(X_U3C.91)   40.0000                  (X_U3C.92)  -40.0000                      

(X_U3C.99)    0.0000                  (X_U4D.10)    3.6766                      

(X_U4D.11)   -7.9604                  (X_U4D.12)   -7.9615                      

(X_U4D.13)    3.6627                  (X_U4D.14)    3.6631                      

(X_U4D.53)    6.5000                  (X_U4D.54)   -7.1780                      

(X_U4D.90)   -2.9327                  (X_U4D.91)   40.0000                      

(X_U4D.92)  -40.0000                  (X_U4D.99)    0.0000                      

(X_U5C.10)    1.4309                  (X_U5C.11)     .0490                      

(X_U5C.12)     .0316                  (X_U5C.13)    1.4137                      

(X_U5C.14)    1.4198                  (X_U5C.53)    6.5000                      

(X_U5C.54)     .8220                  (X_U5C.90)   40.5670                      

(X_U5C.91)   40.0000                  (X_U5C.92)  -40.0000                      

(X_U5C.99)    4.0000                  (X_U6C.10)    1.4548                      

(X_U6C.11)     .0806                  (X_U6C.12) 16.01E-09                      

(X_U6C.13)    1.4266                  (X_U6C.14)    1.4548                      

(X_U6C.53)    6.5000                  (X_U6C.54)     .8220                      

(X_U6C.90)   40.6120                  (X_U6C.91)   40.0000                      

(X_U6C.92)  -40.0000                  (X_U6C.99)    4.0000                      

(X_U7C.10)    1.4548                  (X_U7C.11)     .0806                      

(X_U7C.12) 46.62E-09                  (X_U7C.13)    1.4266                      

(X_U7C.14)    1.4548                  (X_U7C.53)    6.5000                      

(X_U7C.54)     .8220                  (X_U7C.90)   40.6120                      

(X_U7C.91)   40.0000                  (X_U7C.92)  -40.0000                      

(X_U7C.99)    4.0000                  (X_U8C.10)    1.4548                      

(X_U8C.11)     .0806                  (X_U8C.12) 43.73E-09                      

(X_U8C.13)    1.4266                  (X_U8C.14)    1.4548                      

(X_U8C.53)    6.5000                  (X_U8C.54)     .8220                      

(X_U8C.90)   40.6120                  (X_U8C.91)   40.0000                      

(X_U8C.92)  -40.0000                  (X_U8C.99)    4.0000                      

(X_U9C.10)    1.4548                  (X_U9C.11)     .0806                      

(X_U9C.12) 31.43E-09                  (X_U9C.13)    1.4266                      

(X_U9C.14)    1.4548                  (X_U9C.53)    6.5000                      

(X_U9C.54)     .8220                  (X_U9C.90)   40.6120                      

(X_U9C.91)   40.0000                  (X_U9C.92)  -40.0000                      

(X_U9C.99)    4.0000                  




    VOLTAGE SOURCE CURRENTS
    NAME         CURRENT

    V_V1        -1.371E-01
    V_V2         1.004E-02
    X_U2B.vb    -1.201E-08
    X_U2B.vc     3.606E-13
    X_U2B.ve     1.430E-11
    X_U2B.vlim   3.070E-03
    X_U2B.vlp   -3.693E-11
    X_U2B.vln   -4.307E-11
    X_U9C.vb    -1.534E-05
    X_U9C.vc    -2.045E-02
    X_U9C.ve     6.365E-12
    X_U9C.vlim   4.061E-02
    X_U9C.vlp    1.524E-05
    X_U9C.vln   -8.062E-11
    X_U3C.vb    -1.555E-09
    X_U3C.vc     5.686E-12
    X_U3C.ve     8.976E-12
    X_U3C.vlim   1.355E-04
    X_U3C.vlp   -3.987E-11
    X_U3C.vln   -4.014E-11
    X_U1B.vb    -1.173E-08
    X_U1B.vc     4.992E-13
    X_U1B.ve     1.416E-11
    X_U1B.vlim   2.933E-03
    X_U1B.vlp   -3.707E-11
    X_U1B.vln   -4.294E-11
    X_U8C.vb    -1.534E-05
    X_U8C.vc    -1.868E-02
    X_U8C.ve     6.362E-12
    X_U8C.vlim   4.061E-02
    X_U8C.vlp    1.533E-05
    X_U8C.vln   -8.062E-11
    X_U6C.vb    -1.534E-05
    X_U6C.vc    -2.024E-02
    X_U6C.ve     6.365E-12
    X_U6C.vlim   4.061E-02
    X_U6C.vlp    1.525E-05
    X_U6C.vln   -8.062E-11
    X_U5C.vb    -3.425E-06
    X_U5C.vc    -2.020E-02
    X_U5C.ve     6.364E-12
    X_U5C.vlim   4.057E-02
    X_U5C.vlp    2.611E-06
    X_U5C.vln   -8.057E-11
    X_U7C.vb    -1.534E-05
    X_U7C.vc    -1.976E-02
    X_U7C.ve     6.364E-12
    X_U7C.vlim   4.061E-02
    X_U7C.vlp    1.528E-05
    X_U7C.vln   -8.062E-11
    X_U4D.vb     1.633E-10
    X_U4D.vc     6.365E-12
    X_U4D.ve     8.298E-12
    X_U4D.vlim  -2.933E-03
    X_U4D.vlp   -4.293E-11
    X_U4D.vln   -3.707E-11

    TOTAL POWER DISSIPATION   1.32E+00  WATTS

 NODE   VOLTAGE     NODE   VOLTAGE     NODE   VOLTAGE     NODE   VOLTAGE


(  LED)     .8328  (  VCC)    8.0000  ( -VCC)   -8.0000  (N22369)    6.1424     

(N22401)     .1391 (N22473)    6.0038 (N22571)    3.0705 (N22583)     .1393     

(N22863)    3.0716 (N23003)    7.2976 (N23015)    7.3327 (N23185)    7.2982     

(N23197)    1.5625 (N23367)    7.2962 (N23379)    6.7883 (N23549)     .1176     

(N23569)     .8319 (N23667)    7.2985 (N23743)    4.4693 (SENZOR)    6.1402     

(N229811)    3.3158                   (N231710)    1.9753                       

(N233530)    3.1075                   (N235350)     .1176                       

(N236530)    1.9156                   (X_U1B.6)    -.0012                       

(X_U1B.7)    6.1481                   (X_U1B.8)    6.1481                       

(X_U1B.9)    0.0000                   (X_U1B.a)    7.9971                       

(X_U1B.b)    -.0029                   (X_U2B.6)    -.0012                       

(X_U2B.7)    6.2936                   (X_U2B.8)    6.2936                       

(X_U2B.9)    0.0000                   (X_U2B.a)    7.9969                       

(X_U2B.b)    -.0031                   (X_U3C.6)-159.0E-06                       

(X_U3C.7)     .8398                   (X_U3C.8)     .8398                       

(X_U3C.9)    0.0000                   (X_U3C.a)    7.9999                       

(X_U3C.b)-139.4E-06                   (X_U4D.6) 15.73E-06                       

(X_U4D.7)    -.0072                   (X_U4D.8)    -.0072                       

(X_U4D.9)    0.0000                   (X_U4D.a)     .0029                       

(X_U4D.b)   -7.9971                   (X_U5C.6)     .0033                       

(X_U5C.7)     .0907                   (X_U5C.8)     .0907                       

(X_U5C.9)    0.0000                   (X_U5C.a) 538.7E-06                       

(X_U5C.b) 537.9E-06                   (X_U6C.6)   -1.5340                       

(X_U6C.7)    9.3288                   (X_U6C.8)    9.3288                       

(X_U6C.9)    0.0000                   (X_U6C.a)    7.9594                       

(X_U6C.b)    -.0406                   (X_U7C.6)   -1.5340                       

(X_U7C.7)    9.3282                   (X_U7C.8)    9.3282                       

(X_U7C.9)    0.0000                   (X_U7C.a)    7.9594                       

(X_U7C.b)    -.0406                   (X_U8C.6)   -1.5340                       

(X_U8C.7)    9.3268                   (X_U8C.8)    9.3268                       

(X_U8C.9)    0.0000                   (X_U8C.a)    7.9594                       

(X_U8C.b)    -.0406                   (X_U9C.6)   -1.5340                       

(X_U9C.7)    9.3291                   (X_U9C.8)    9.3291                       

(X_U9C.9)    0.0000                   (X_U9C.a)    7.9594                       

(X_U9C.b)    -.0406                   (DESCAZUT)    6.0016                      

(X_U1B.10)    6.6091                  (X_U1B.11)   -7.9605                      

(X_U1B.12)   -7.9626                  (X_U1B.13)    6.5953                      

(X_U1B.14)    6.5960                  (X_U1B.53)    6.5000                      

(X_U1B.54)   -7.1780                  (X_U1B.90)    2.9311                      

(X_U1B.91)   40.0000                  (X_U1B.92)  -40.0000                      

(X_U1B.99)    0.0000                  (X_U2B.10)    6.7477                      

(X_U2B.11)   -7.9605                  (X_U2B.12)   -7.9627                      

(X_U2B.13)    6.7339                  (X_U2B.14)    6.7347                      

(X_U2B.53)    6.5000                  (X_U2B.54)   -7.1780                      

(X_U2B.90)    3.0685                  (X_U2B.91)   40.0000                      

(X_U2B.92)  -40.0000                  (X_U2B.99)    0.0000                      

(X_U3C.10)     .7468                  (X_U3C.11)   -7.9602                      

(X_U3C.12)   -7.9605                  (X_U3C.13)     .7329                      

(X_U3C.14)     .7330                  (X_U3C.53)    6.5000                      

(X_U3C.54)   -7.1780                  (X_U3C.90)     .1386                      

(X_U3C.91)   40.0000                  (X_U3C.92)  -40.0000                      

(X_U3C.99)    0.0000                  (X_U4D.10)    3.6781                      

(X_U4D.11)   -7.9604                  (X_U4D.12)   -7.9615                      

(X_U4D.13)    3.6642                  (X_U4D.14)    3.6647                      

(X_U4D.53)    6.5000                  (X_U4D.54)   -7.1780                      

(X_U4D.90)   -2.9312                  (X_U4D.91)   40.0000                      

(X_U4D.92)  -40.0000                  (X_U4D.99)    0.0000                      

(X_U5C.10)    1.4407                  (X_U5C.11)     .0398                      

(X_U5C.12)     .0408                  (X_U5C.13)    1.4267                      

(X_U5C.14)    1.4264                  (X_U5C.53)    6.5000                      

(X_U5C.54)     .8220                  (X_U5C.90)    -.5379                      

(X_U5C.91)   40.0000                  (X_U5C.92)  -40.0000                      

(X_U5C.99)    4.0000                  (X_U6C.10)    1.4732                      

(X_U6C.11)     .0806                  (X_U6C.12) 16.11E-09                      

(X_U6C.13)    1.4450                  (X_U6C.14)    1.4732                      

(X_U6C.53)    6.5000                  (X_U6C.54)     .8220                      

(X_U6C.90)   40.6120                  (X_U6C.91)   40.0000                      

(X_U6C.92)  -40.0000                  (X_U6C.99)    4.0000                      

(X_U7C.10)    1.4732                  (X_U7C.11)     .0806                      

(X_U7C.12) 46.72E-09                  (X_U7C.13)    1.4450                      

(X_U7C.14)    1.4732                  (X_U7C.53)    6.5000                      

(X_U7C.54)     .8220                  (X_U7C.90)   40.6120                      

(X_U7C.91)   40.0000                  (X_U7C.92)  -40.0000                      

(X_U7C.99)    4.0000                  (X_U8C.10)    1.4732                      

(X_U8C.11)     .0806                  (X_U8C.12) 43.83E-09                      

(X_U8C.13)    1.4450                  (X_U8C.14)    1.4732                      

(X_U8C.53)    6.5000                  (X_U8C.54)     .8220                      

(X_U8C.90)   40.6120                  (X_U8C.91)   40.0000                      

(X_U8C.92)  -40.0000                  (X_U8C.99)    4.0000                      

(X_U9C.10)    1.4732                  (X_U9C.11)     .0806                      

(X_U9C.12) 31.53E-09                  (X_U9C.13)    1.4450                      

(X_U9C.14)    1.4732                  (X_U9C.53)    6.5000                      

(X_U9C.54)     .8220                  (X_U9C.90)   40.6120                      

(X_U9C.91)   40.0000                  (X_U9C.92)  -40.0000                      

(X_U9C.99)    4.0000                  




    VOLTAGE SOURCE CURRENTS
    NAME         CURRENT

    V_V1        -1.167E-01
    V_V2         1.004E-02
    X_U2B.vb    -1.201E-08
    X_U2B.vc     3.606E-13
    X_U2B.ve     1.430E-11
    X_U2B.vlim   3.068E-03
    X_U2B.vlp   -3.693E-11
    X_U2B.vln   -4.307E-11
    X_U9C.vb    -1.534E-05
    X_U9C.vc    -2.045E-02
    X_U9C.ve     6.365E-12
    X_U9C.vlim   4.061E-02
    X_U9C.vlp    1.524E-05
    X_U9C.vln   -8.062E-11
    X_U3C.vb    -1.590E-09
    X_U3C.vc     5.668E-12
    X_U3C.ve     8.994E-12
    X_U3C.vlim   1.386E-04
    X_U3C.vlp   -3.986E-11
    X_U3C.vln   -4.014E-11
    X_U1B.vb    -1.173E-08
    X_U1B.vc     4.992E-13
    X_U1B.ve     1.416E-11
    X_U1B.vlim   2.931E-03
    X_U1B.vlp   -3.707E-11
    X_U1B.vln   -4.293E-11
    X_U8C.vb    -1.534E-05
    X_U8C.vc    -1.868E-02
    X_U8C.ve     6.362E-12
    X_U8C.vlim   4.061E-02
    X_U8C.vlp    1.533E-05
    X_U8C.vln   -8.062E-11
    X_U6C.vb    -1.534E-05
    X_U6C.vc    -2.022E-02
    X_U6C.ve     6.365E-12
    X_U6C.vlim   4.061E-02
    X_U6C.vlp    1.525E-05
    X_U6C.vln   -8.062E-11
    X_U5C.vb     3.274E-08
    X_U5C.vc     6.383E-12
    X_U5C.ve    -5.379E-04
    X_U5C.vlim  -5.379E-04
    X_U5C.vlp   -4.054E-11
    X_U5C.vln   -3.947E-11
    X_U7C.vb    -1.534E-05
    X_U7C.vc    -1.976E-02
    X_U7C.ve     6.364E-12
    X_U7C.vlim   4.061E-02
    X_U7C.vlp    1.527E-05
    X_U7C.vln   -8.062E-11
    X_U4D.vb     1.573E-10
    X_U4D.vc     6.361E-12
    X_U4D.ve     8.301E-12
    X_U4D.vlim  -2.931E-03
    X_U4D.vlp   -4.293E-11
    X_U4D.vln   -3.707E-11

    TOTAL POWER DISSIPATION   1.13E+00  WATTS

 NODE   VOLTAGE     NODE   VOLTAGE     NODE   VOLTAGE     NODE   VOLTAGE


(  LED)     .8145  (  VCC)    8.0000  ( -VCC)   -8.0000  (N22369)    6.1424     

(N22401)     .1360 (N22473)    6.0038 (N22571)    3.0689 (N22583)     .1363     

(N22863)    3.0701 (N23003)    7.2976 (N23015)    7.3327 (N23185)    7.2982     

(N23197)    1.5625 (N23367)    7.2962 (N23379)    6.7883 (N23549)    7.2982     

(N23569)     .8326 (N23667)    7.2985 (N23743)    4.4693 (SENZOR)    6.1402     

(N229811)    3.3158                   (N231710)    1.9753                       

(N233530)    3.1075                   (N235350)    1.9814                       

(N236530)    1.9156                   (X_U1B.6)    -.0012                       

(X_U1B.7)    6.1482                   (X_U1B.8)    6.1482                       

(X_U1B.9)    0.0000                   (X_U1B.a)    7.9971                       

(X_U1B.b)    -.0029                   (X_U2B.6)    -.0012                       

(X_U2B.7)    6.2937                   (X_U2B.8)    6.2937                       

(X_U2B.9)    0.0000                   (X_U2B.a)    7.9969                       

(X_U2B.b)    -.0031                   (X_U3C.6)-155.5E-06                       

(X_U3C.7)     .8212                   (X_U3C.8)     .8212                       

(X_U3C.9)    0.0000                   (X_U3C.a)    7.9999                       

(X_U3C.b)-136.3E-06                   (X_U4D.6) 16.33E-06                       

(X_U4D.7)    -.0104                   (X_U4D.8)    -.0104                       

(X_U4D.9)    0.0000                   (X_U4D.a)     .0029                       

(X_U4D.b)   -7.9971                   (X_U5C.6)    -.3562                       

(X_U5C.7)    9.3266                   (X_U5C.8)    9.3266                       

(X_U5C.9)    0.0000                   (X_U5C.a)    7.9594                       

(X_U5C.b)    -.0406                   (X_U6C.6)   -1.5343                       

(X_U6C.7)    9.3288                   (X_U6C.8)    9.3288                       

(X_U6C.9)    0.0000                   (X_U6C.a)    7.9594                       

(X_U6C.b)    -.0406                   (X_U7C.6)   -1.5343                       

(X_U7C.7)    9.3282                   (X_U7C.8)    9.3282                       

(X_U7C.9)    0.0000                   (X_U7C.a)    7.9594                       

(X_U7C.b)    -.0406                   (X_U8C.6)   -1.5343                       

(X_U8C.7)    9.3268                   (X_U8C.8)    9.3268                       

(X_U8C.9)    0.0000                   (X_U8C.a)    7.9594                       

(X_U8C.b)    -.0406                   (X_U9C.6)   -1.5343                       

(X_U9C.7)    9.3291                   (X_U9C.8)    9.3291                       

(X_U9C.9)    0.0000                   (X_U9C.a)    7.9594                       

(X_U9C.b)    -.0406                   (DESCAZUT)    6.0016                      

(X_U1B.10)    6.6091                  (X_U1B.11)   -7.9605                      

(X_U1B.12)   -7.9626                  (X_U1B.13)    6.5953                      

(X_U1B.14)    6.5960                  (X_U1B.53)    6.5000                      

(X_U1B.54)   -7.1780                  (X_U1B.90)    2.9326                      

(X_U1B.91)   40.0000                  (X_U1B.92)  -40.0000                      

(X_U1B.99)    0.0000                  (X_U2B.10)    6.7477                      

(X_U2B.11)   -7.9605                  (X_U2B.12)   -7.9627                      

(X_U2B.13)    6.7339                  (X_U2B.14)    6.7347                      

(X_U2B.53)    6.5000                  (X_U2B.54)   -7.1780                      

(X_U2B.90)    3.0700                  (X_U2B.91)   40.0000                      

(X_U2B.92)  -40.0000                  (X_U2B.99)    0.0000                      

(X_U3C.10)     .7438                  (X_U3C.11)   -7.9602                      

(X_U3C.12)   -7.9605                  (X_U3C.13)     .7299                      

(X_U3C.14)     .7300                  (X_U3C.53)    6.5000                      

(X_U3C.54)   -7.1780                  (X_U3C.90)     .1355                      

(X_U3C.91)   40.0000                  (X_U3C.92)  -40.0000                      

(X_U3C.99)    0.0000                  (X_U4D.10)    3.6766                      

(X_U4D.11)   -7.9604                  (X_U4D.12)   -7.9615                      

(X_U4D.13)    3.6627                  (X_U4D.14)    3.6631                      

(X_U4D.53)    6.5000                  (X_U4D.54)   -7.1780                      

(X_U4D.90)   -2.9327                  (X_U4D.91)   40.0000                      

(X_U4D.92)  -40.0000                  (X_U4D.99)    0.0000                      

(X_U5C.10)    1.4312                  (X_U5C.11)     .0493                      

(X_U5C.12)     .0313                  (X_U5C.13)    1.4139                      

(X_U5C.14)    1.4202                  (X_U5C.53)    6.5000                      

(X_U5C.54)     .8220                  (X_U5C.90)   40.5680                      

(X_U5C.91)   40.0000                  (X_U5C.92)  -40.0000                      

(X_U5C.99)    4.0000                  (X_U6C.10)    1.4548                      

(X_U6C.11)     .0806                  (X_U6C.12) 16.01E-09                      

(X_U6C.13)    1.4266                  (X_U6C.14)    1.4548                      

(X_U6C.53)    6.5000                  (X_U6C.54)     .8220                      

(X_U6C.90)   40.6120                  (X_U6C.91)   40.0000                      

(X_U6C.92)  -40.0000                  (X_U6C.99)    4.0000                      

(X_U7C.10)    1.4548                  (X_U7C.11)     .0806                      

(X_U7C.12) 46.62E-09                  (X_U7C.13)    1.4266                      

(X_U7C.14)    1.4548                  (X_U7C.53)    6.5000                      

(X_U7C.54)     .8220                  (X_U7C.90)   40.6120                      

(X_U7C.91)   40.0000                  (X_U7C.92)  -40.0000                      

(X_U7C.99)    4.0000                  (X_U8C.10)    1.4548                      

(X_U8C.11)     .0806                  (X_U8C.12) 43.73E-09                      

(X_U8C.13)    1.4266                  (X_U8C.14)    1.4548                      

(X_U8C.53)    6.5000                  (X_U8C.54)     .8220                      

(X_U8C.90)   40.6120                  (X_U8C.91)   40.0000                      

(X_U8C.92)  -40.0000                  (X_U8C.99)    4.0000                      

(X_U9C.10)    1.4548                  (X_U9C.11)     .0806                      

(X_U9C.12) 31.43E-09                  (X_U9C.13)    1.4266                      

(X_U9C.14)    1.4548                  (X_U9C.53)    6.5000                      

(X_U9C.54)     .8220                  (X_U9C.90)   40.6120                      

(X_U9C.91)   40.0000                  (X_U9C.92)  -40.0000                      

(X_U9C.99)    4.0000                  




    VOLTAGE SOURCE CURRENTS
    NAME         CURRENT

    V_V1        -1.371E-01
    V_V2         1.004E-02
    X_U2B.vb    -1.201E-08
    X_U2B.vc     3.606E-13
    X_U2B.ve     1.430E-11
    X_U2B.vlim   3.070E-03
    X_U2B.vlp   -3.693E-11
    X_U2B.vln   -4.307E-11
    X_U9C.vb    -1.534E-05
    X_U9C.vc    -2.045E-02
    X_U9C.ve     6.365E-12
    X_U9C.vlim   4.061E-02
    X_U9C.vlp    1.524E-05
    X_U9C.vln   -8.062E-11
    X_U3C.vb    -1.555E-09
    X_U3C.vc     5.686E-12
    X_U3C.ve     8.976E-12
    X_U3C.vlim   1.355E-04
    X_U3C.vlp   -3.987E-11
    X_U3C.vln   -4.014E-11
    X_U1B.vb    -1.173E-08
    X_U1B.vc     4.992E-13
    X_U1B.ve     1.416E-11
    X_U1B.vlim   2.933E-03
    X_U1B.vlp   -3.707E-11
    X_U1B.vln   -4.294E-11
    X_U8C.vb    -1.534E-05
    X_U8C.vc    -1.868E-02
    X_U8C.ve     6.362E-12
    X_U8C.vlim   4.061E-02
    X_U8C.vlp    1.533E-05
    X_U8C.vln   -8.062E-11
    X_U6C.vb    -1.534E-05
    X_U6C.vc    -2.022E-02
    X_U6C.ve     6.365E-12
    X_U6C.vlim   4.061E-02
    X_U6C.vlp    1.525E-05
    X_U6C.vln   -8.062E-11
    X_U5C.vb    -3.562E-06
    X_U5C.vc    -2.020E-02
    X_U5C.ve     6.364E-12
    X_U5C.vlim   4.057E-02
    X_U5C.vlp    2.756E-06
    X_U5C.vln   -8.057E-11
    X_U7C.vb    -1.534E-05
    X_U7C.vc    -1.976E-02
    X_U7C.ve     6.364E-12
    X_U7C.vlim   4.061E-02
    X_U7C.vlp    1.528E-05
    X_U7C.vln   -8.062E-11
    X_U4D.vb     1.633E-10
    X_U4D.vc     6.365E-12
    X_U4D.ve     8.298E-12
    X_U4D.vlim  -2.933E-03
    X_U4D.vlp   -4.293E-11
    X_U4D.vln   -3.707E-11

    TOTAL POWER DISSIPATION   1.32E+00  WATTS

 NODE   VOLTAGE     NODE   VOLTAGE     NODE   VOLTAGE     NODE   VOLTAGE


(  LED)     .8151  (  VCC)    8.0000  ( -VCC)   -8.0000  (N22369)    6.1424     

(N22401)     .1360 (N22473)    6.0038 (N22571)    3.0689 (N22583)     .1363     

(N22863)    3.0701 (N23003)    7.2976 (N23015)    7.3327 (N23185)    7.2982     

(N23197)    1.5625 (N23367)    7.2962 (N23379)    6.7883 (N23549)    7.2982     

(N23569)     .8319 (N23667)    7.2985 (N23743)    4.4693 (SENZOR)    6.1402     

(N229811)    3.3158                   (N231710)    1.9753                       

(N233530)    3.1075                   (N235350)    1.9814                       

(N236530)    1.9156                   (X_U1B.6)    -.0012                       

(X_U1B.7)    6.1482                   (X_U1B.8)    6.1482                       

(X_U1B.9)    0.0000                   (X_U1B.a)    7.9971                       

(X_U1B.b)    -.0029                   (X_U2B.6)    -.0012                       

(X_U2B.7)    6.2937                   (X_U2B.8)    6.2937                       

(X_U2B.9)    0.0000                   (X_U2B.a)    7.9969                       

(X_U2B.b)    -.0031                   (X_U3C.6)-155.6E-06                       

(X_U3C.7)     .8219                   (X_U3C.8)     .8219                       

(X_U3C.9)    0.0000                   (X_U3C.a)    7.9999                       

(X_U3C.b)-136.3E-06                   (X_U4D.6) 16.33E-06                       

(X_U4D.7)    -.0104                   (X_U4D.8)    -.0104                       

(X_U4D.9)    0.0000                   (X_U4D.a)     .0029                       

(X_U4D.b)   -7.9971                   (X_U5C.6)    -.3299                       

(X_U5C.7)    9.3264                   (X_U5C.8)    9.3264                       

(X_U5C.9)    0.0000                   (X_U5C.a)    7.9594                       

(X_U5C.b)    -.0406                   (X_U6C.6)   -1.5342                       

(X_U6C.7)    9.3288                   (X_U6C.8)    9.3288                       

(X_U6C.9)    0.0000                   (X_U6C.a)    7.9594                       

(X_U6C.b)    -.0406                   (X_U7C.6)   -1.5342                       

(X_U7C.7)    9.3282                   (X_U7C.8)    9.3282                       

(X_U7C.9)    0.0000                   (X_U7C.a)    7.9594                       

(X_U7C.b)    -.0406                   (X_U8C.6)   -1.5342                       

(X_U8C.7)    9.3268                   (X_U8C.8)    9.3268                       

(X_U8C.9)    0.0000                   (X_U8C.a)    7.9594                       

(X_U8C.b)    -.0406                   (X_U9C.6)   -1.5342                       

(X_U9C.7)    9.3291                   (X_U9C.8)    9.3291                       

(X_U9C.9)    0.0000                   (X_U9C.a)    7.9594                       

(X_U9C.b)    -.0406                   (DESCAZUT)    6.0016                      

(X_U1B.10)    6.6091                  (X_U1B.11)   -7.9605                      

(X_U1B.12)   -7.9626                  (X_U1B.13)    6.5953                      

(X_U1B.14)    6.5960                  (X_U1B.53)    6.5000                      

(X_U1B.54)   -7.1780                  (X_U1B.90)    2.9326                      

(X_U1B.91)   40.0000                  (X_U1B.92)  -40.0000                      

(X_U1B.99)    0.0000                  (X_U2B.10)    6.7477                      

(X_U2B.11)   -7.9605                  (X_U2B.12)   -7.9627                      

(X_U2B.13)    6.7339                  (X_U2B.14)    6.7347                      

(X_U2B.53)    6.5000                  (X_U2B.54)   -7.1780                      

(X_U2B.90)    3.0700                  (X_U2B.91)   40.0000                      

(X_U2B.92)  -40.0000                  (X_U2B.99)    0.0000                      

(X_U3C.10)     .7438                  (X_U3C.11)   -7.9602                      

(X_U3C.12)   -7.9605                  (X_U3C.13)     .7299                      

(X_U3C.14)     .7300                  (X_U3C.53)    6.5000                      

(X_U3C.54)   -7.1780                  (X_U3C.90)     .1355                      

(X_U3C.91)   40.0000                  (X_U3C.92)  -40.0000                      

(X_U3C.99)    0.0000                  (X_U4D.10)    3.6766                      

(X_U4D.11)   -7.9604                  (X_U4D.12)   -7.9615                      

(X_U4D.13)    3.6627                  (X_U4D.14)    3.6631                      

(X_U4D.53)    6.5000                  (X_U4D.54)   -7.1780                      

(X_U4D.90)   -2.9327                  (X_U4D.91)   40.0000                      

(X_U4D.92)  -40.0000                  (X_U4D.99)    0.0000                      

(X_U5C.10)    1.4312                  (X_U5C.11)     .0486                      

(X_U5C.12)     .0320                  (X_U5C.13)    1.4142                      

(X_U5C.14)    1.4201                  (X_U5C.53)    6.5000                      

(X_U5C.54)     .8220                  (X_U5C.90)   40.5650                      

(X_U5C.91)   40.0000                  (X_U5C.92)  -40.0000                      

(X_U5C.99)    4.0000                  (X_U6C.10)    1.4555                      

(X_U6C.11)     .0806                  (X_U6C.12) 16.01E-09                      

(X_U6C.13)    1.4273                  (X_U6C.14)    1.4555                      

(X_U6C.53)    6.5000                  (X_U6C.54)     .8220                      

(X_U6C.90)   40.6120                  (X_U6C.91)   40.0000                      

(X_U6C.92)  -40.0000                  (X_U6C.99)    4.0000                      

(X_U7C.10)    1.4555                  (X_U7C.11)     .0806                      

(X_U7C.12) 46.63E-09                  (X_U7C.13)    1.4273                      

(X_U7C.14)    1.4555                  (X_U7C.53)    6.5000                      

(X_U7C.54)     .8220                  (X_U7C.90)   40.6120                      

(X_U7C.91)   40.0000                  (X_U7C.92)  -40.0000                      

(X_U7C.99)    4.0000                  (X_U8C.10)    1.4555                      

(X_U8C.11)     .0806                  (X_U8C.12) 43.74E-09                      

(X_U8C.13)    1.4273                  (X_U8C.14)    1.4555                      

(X_U8C.53)    6.5000                  (X_U8C.54)     .8220                      

(X_U8C.90)   40.6120                  (X_U8C.91)   40.0000                      

(X_U8C.92)  -40.0000                  (X_U8C.99)    4.0000                      

(X_U9C.10)    1.4555                  (X_U9C.11)     .0806                      

(X_U9C.12) 31.44E-09                  (X_U9C.13)    1.4273                      

(X_U9C.14)    1.4555                  (X_U9C.53)    6.5000                      

(X_U9C.54)     .8220                  (X_U9C.90)   40.6120                      

(X_U9C.91)   40.0000                  (X_U9C.92)  -40.0000                      

(X_U9C.99)    4.0000                  




    VOLTAGE SOURCE CURRENTS
    NAME         CURRENT

    V_V1        -1.371E-01
    V_V2         1.004E-02
    X_U2B.vb    -1.201E-08
    X_U2B.vc     3.606E-13
    X_U2B.ve     1.430E-11
    X_U2B.vlim   3.070E-03
    X_U2B.vlp   -3.693E-11
    X_U2B.vln   -4.307E-11
    X_U9C.vb    -1.534E-05
    X_U9C.vc    -2.045E-02
    X_U9C.ve     6.365E-12
    X_U9C.vlim   4.061E-02
    X_U9C.vlp    1.524E-05
    X_U9C.vln   -8.062E-11
    X_U3C.vb    -1.556E-09
    X_U3C.vc     5.686E-12
    X_U3C.ve     8.976E-12
    X_U3C.vlim   1.355E-04
    X_U3C.vlp   -3.987E-11
    X_U3C.vln   -4.014E-11
    X_U1B.vb    -1.173E-08
    X_U1B.vc     4.992E-13
    X_U1B.ve     1.416E-11
    X_U1B.vlim   2.933E-03
    X_U1B.vlp   -3.707E-11
    X_U1B.vln   -4.294E-11
    X_U8C.vb    -1.534E-05
    X_U8C.vc    -1.868E-02
    X_U8C.ve     6.362E-12
    X_U8C.vlim   4.061E-02
    X_U8C.vlp    1.533E-05
    X_U8C.vln   -8.062E-11
    X_U6C.vb    -1.534E-05
    X_U6C.vc    -2.022E-02
    X_U6C.ve     6.365E-12
    X_U6C.vlim   4.061E-02
    X_U6C.vlp    1.525E-05
    X_U6C.vln   -8.062E-11
    X_U5C.vb    -3.299E-06
    X_U5C.vc    -2.019E-02
    X_U5C.ve     6.364E-12
    X_U5C.vlim   4.057E-02
    X_U5C.vlp    2.478E-06
    X_U5C.vln   -8.057E-11
    X_U7C.vb    -1.534E-05
    X_U7C.vc    -1.976E-02
    X_U7C.ve     6.364E-12
    X_U7C.vlim   4.061E-02
    X_U7C.vlp    1.528E-05
    X_U7C.vln   -8.062E-11
    X_U4D.vb     1.633E-10
    X_U4D.vc     6.365E-12
    X_U4D.ve     8.298E-12
    X_U4D.vlim  -2.933E-03
    X_U4D.vlp   -4.293E-11
    X_U4D.vln   -3.707E-11

    TOTAL POWER DISSIPATION   1.32E+00  WATTS

 NODE   VOLTAGE     NODE   VOLTAGE     NODE   VOLTAGE     NODE   VOLTAGE


(  LED)     .8145  (  VCC)    8.0000  ( -VCC)   -8.0000  (N22369)    6.1424     

(N22401)     .1360 (N22473)    6.0038 (N22571)    3.0689 (N22583)     .1363     

(N22863)    3.0701 (N23003)    7.2976 (N23015)    7.3327 (N23185)    7.2982     

(N23197)    1.5625 (N23367)    7.2962 (N23379)    6.7883 (N23549)    7.2982     

(N23569)     .8319 (N23667)    7.2985 (N23743)    4.4673 (SENZOR)    6.1402     

(N229811)    3.3158                   (N231710)    1.9753                       

(N233530)    3.1075                   (N235350)    1.9814                       

(N236530)    1.9156                   (X_U1B.6)    -.0012                       

(X_U1B.7)    6.1482                   (X_U1B.8)    6.1482                       

(X_U1B.9)    0.0000                   (X_U1B.a)    7.9971                       

(X_U1B.b)    -.0029                   (X_U2B.6)    -.0012                       

(X_U2B.7)    6.2937                   (X_U2B.8)    6.2937                       

(X_U2B.9)    0.0000                   (X_U2B.a)    7.9969                       

(X_U2B.b)    -.0031                   (X_U3C.6)-155.5E-06                       

(X_U3C.7)     .8212                   (X_U3C.8)     .8212                       

(X_U3C.9)    0.0000                   (X_U3C.a)    7.9999                       

(X_U3C.b)-136.3E-06                   (X_U4D.6) 16.33E-06                       

(X_U4D.7)    -.0104                   (X_U4D.8)    -.0104                       

(X_U4D.9)    0.0000                   (X_U4D.a)     .0029                       

(X_U4D.b)   -7.9971                   (X_U5C.6)    -.3425                       

(X_U5C.7)    9.3265                   (X_U5C.8)    9.3265                       

(X_U5C.9)    0.0000                   (X_U5C.a)    7.9594                       

(X_U5C.b)    -.0406                   (X_U6C.6)   -1.5343                       

(X_U6C.7)    9.3288                   (X_U6C.8)    9.3288                       

(X_U6C.9)    0.0000                   (X_U6C.a)    7.9594                       

(X_U6C.b)    -.0406                   (X_U7C.6)   -1.5343                       

(X_U7C.7)    9.3282                   (X_U7C.8)    9.3282                       

(X_U7C.9)    0.0000                   (X_U7C.a)    7.9594                       

(X_U7C.b)    -.0406                   (X_U8C.6)   -1.5343                       

(X_U8C.7)    9.3268                   (X_U8C.8)    9.3268                       

(X_U8C.9)    0.0000                   (X_U8C.a)    7.9594                       

(X_U8C.b)    -.0406                   (X_U9C.6)   -1.5343                       

(X_U9C.7)    9.3291                   (X_U9C.8)    9.3291                       

(X_U9C.9)    0.0000                   (X_U9C.a)    7.9594                       

(X_U9C.b)    -.0406                   (DESCAZUT)    6.0016                      

(X_U1B.10)    6.6091                  (X_U1B.11)   -7.9605                      

(X_U1B.12)   -7.9626                  (X_U1B.13)    6.5953                      

(X_U1B.14)    6.5960                  (X_U1B.53)    6.5000                      

(X_U1B.54)   -7.1780                  (X_U1B.90)    2.9326                      

(X_U1B.91)   40.0000                  (X_U1B.92)  -40.0000                      

(X_U1B.99)    0.0000                  (X_U2B.10)    6.7477                      

(X_U2B.11)   -7.9605                  (X_U2B.12)   -7.9627                      

(X_U2B.13)    6.7339                  (X_U2B.14)    6.7347                      

(X_U2B.53)    6.5000                  (X_U2B.54)   -7.1780                      

(X_U2B.90)    3.0700                  (X_U2B.91)   40.0000                      

(X_U2B.92)  -40.0000                  (X_U2B.99)    0.0000                      

(X_U3C.10)     .7438                  (X_U3C.11)   -7.9602                      

(X_U3C.12)   -7.9605                  (X_U3C.13)     .7299                      

(X_U3C.14)     .7300                  (X_U3C.53)    6.5000                      

(X_U3C.54)   -7.1780                  (X_U3C.90)     .1355                      

(X_U3C.91)   40.0000                  (X_U3C.92)  -40.0000                      

(X_U3C.99)    0.0000                  (X_U4D.10)    3.6766                      

(X_U4D.11)   -7.9604                  (X_U4D.12)   -7.9615                      

(X_U4D.13)    3.6627                  (X_U4D.14)    3.6631                      

(X_U4D.53)    6.5000                  (X_U4D.54)   -7.1780                      

(X_U4D.90)   -2.9327                  (X_U4D.91)   40.0000                      

(X_U4D.92)  -40.0000                  (X_U4D.99)    0.0000                      

(X_U5C.10)    1.4309                  (X_U5C.11)     .0490                      

(X_U5C.12)     .0316                  (X_U5C.13)    1.4137                      

(X_U5C.14)    1.4198                  (X_U5C.53)    6.5000                      

(X_U5C.54)     .8220                  (X_U5C.90)   40.5670                      

(X_U5C.91)   40.0000                  (X_U5C.92)  -40.0000                      

(X_U5C.99)    4.0000                  (X_U6C.10)    1.4548                      

(X_U6C.11)     .0806                  (X_U6C.12) 16.01E-09                      

(X_U6C.13)    1.4266                  (X_U6C.14)    1.4548                      

(X_U6C.53)    6.5000                  (X_U6C.54)     .8220                      

(X_U6C.90)   40.6120                  (X_U6C.91)   40.0000                      

(X_U6C.92)  -40.0000                  (X_U6C.99)    4.0000                      

(X_U7C.10)    1.4548                  (X_U7C.11)     .0806                      

(X_U7C.12) 46.62E-09                  (X_U7C.13)    1.4266                      

(X_U7C.14)    1.4548                  (X_U7C.53)    6.5000                      

(X_U7C.54)     .8220                  (X_U7C.90)   40.6120                      

(X_U7C.91)   40.0000                  (X_U7C.92)  -40.0000                      

(X_U7C.99)    4.0000                  (X_U8C.10)    1.4548                      

(X_U8C.11)     .0806                  (X_U8C.12) 43.73E-09                      

(X_U8C.13)    1.4266                  (X_U8C.14)    1.4548                      

(X_U8C.53)    6.5000                  (X_U8C.54)     .8220                      

(X_U8C.90)   40.6120                  (X_U8C.91)   40.0000                      

(X_U8C.92)  -40.0000                  (X_U8C.99)    4.0000                      

(X_U9C.10)    1.4548                  (X_U9C.11)     .0806                      

(X_U9C.12) 31.42E-09                  (X_U9C.13)    1.4266                      

(X_U9C.14)    1.4548                  (X_U9C.53)    6.5000                      

(X_U9C.54)     .8220                  (X_U9C.90)   40.6120                      

(X_U9C.91)   40.0000                  (X_U9C.92)  -40.0000                      

(X_U9C.99)    4.0000                  




    VOLTAGE SOURCE CURRENTS
    NAME         CURRENT

    V_V1        -1.371E-01
    V_V2         1.004E-02
    X_U2B.vb    -1.201E-08
    X_U2B.vc     3.606E-13
    X_U2B.ve     1.430E-11
    X_U2B.vlim   3.070E-03
    X_U2B.vlp   -3.693E-11
    X_U2B.vln   -4.307E-11
    X_U9C.vb    -1.534E-05
    X_U9C.vc    -2.045E-02
    X_U9C.ve     6.365E-12
    X_U9C.vlim   4.061E-02
    X_U9C.vlp    1.524E-05
    X_U9C.vln   -8.062E-11
    X_U3C.vb    -1.555E-09
    X_U3C.vc     5.686E-12
    X_U3C.ve     8.976E-12
    X_U3C.vlim   1.355E-04
    X_U3C.vlp   -3.987E-11
    X_U3C.vln   -4.014E-11
    X_U1B.vb    -1.173E-08
    X_U1B.vc     4.992E-13
    X_U1B.ve     1.416E-11
    X_U1B.vlim   2.933E-03
    X_U1B.vlp   -3.707E-11
    X_U1B.vln   -4.294E-11
    X_U8C.vb    -1.534E-05
    X_U8C.vc    -1.868E-02
    X_U8C.ve     6.362E-12
    X_U8C.vlim   4.061E-02
    X_U8C.vlp    1.533E-05
    X_U8C.vln   -8.062E-11
    X_U6C.vb    -1.534E-05
    X_U6C.vc    -2.022E-02
    X_U6C.ve     6.365E-12
    X_U6C.vlim   4.061E-02
    X_U6C.vlp    1.525E-05
    X_U6C.vln   -8.062E-11
    X_U5C.vb    -3.425E-06
    X_U5C.vc    -2.020E-02
    X_U5C.ve     6.364E-12
    X_U5C.vlim   4.057E-02
    X_U5C.vlp    2.611E-06
    X_U5C.vln   -8.057E-11
    X_U7C.vb    -1.534E-05
    X_U7C.vc    -1.976E-02
    X_U7C.ve     6.364E-12
    X_U7C.vlim   4.061E-02
    X_U7C.vlp    1.528E-05
    X_U7C.vln   -8.062E-11
    X_U4D.vb     1.633E-10
    X_U4D.vc     6.365E-12
    X_U4D.ve     8.298E-12
    X_U4D.vlim  -2.933E-03
    X_U4D.vlp   -4.293E-11
    X_U4D.vln   -3.707E-11

    TOTAL POWER DISSIPATION   1.32E+00  WATTS

 NODE   VOLTAGE     NODE   VOLTAGE     NODE   VOLTAGE     NODE   VOLTAGE


(  LED)     .8145  (  VCC)    8.0000  ( -VCC)   -8.0000  (N22369)    6.1424     

(N22401)     .1360 (N22473)    6.0038 (N22571)    3.0689 (N22583)     .1363     

(N22863)    3.0701 (N23003)    7.2976 (N23015)    7.3327 (N23185)    7.2982     

(N23197)    1.5625 (N23367)    7.2962 (N23379)    6.7883 (N23549)    7.2982     

(N23569)     .8319 (N23667)    7.2985 (N23743)    4.4693 (SENZOR)    6.1402     

(N229811)    3.3155                   (N231710)    1.9753                       

(N233530)    3.1075                   (N235350)    1.9814                       

(N236530)    1.9156                   (X_U1B.6)    -.0012                       

(X_U1B.7)    6.1482                   (X_U1B.8)    6.1482                       

(X_U1B.9)    0.0000                   (X_U1B.a)    7.9971                       

(X_U1B.b)    -.0029                   (X_U2B.6)    -.0012                       

(X_U2B.7)    6.2937                   (X_U2B.8)    6.2937                       

(X_U2B.9)    0.0000                   (X_U2B.a)    7.9969                       

(X_U2B.b)    -.0031                   (X_U3C.6)-155.5E-06                       

(X_U3C.7)     .8212                   (X_U3C.8)     .8212                       

(X_U3C.9)    0.0000                   (X_U3C.a)    7.9999                       

(X_U3C.b)-136.3E-06                   (X_U4D.6) 16.33E-06                       

(X_U4D.7)    -.0104                   (X_U4D.8)    -.0104                       

(X_U4D.9)    0.0000                   (X_U4D.a)     .0029                       

(X_U4D.b)   -7.9971                   (X_U5C.6)    -.3425                       

(X_U5C.7)    9.3265                   (X_U5C.8)    9.3265                       

(X_U5C.9)    0.0000                   (X_U5C.a)    7.9594                       

(X_U5C.b)    -.0406                   (X_U6C.6)   -1.5343                       

(X_U6C.7)    9.3288                   (X_U6C.8)    9.3288                       

(X_U6C.9)    0.0000                   (X_U6C.a)    7.9594                       

(X_U6C.b)    -.0406                   (X_U7C.6)   -1.5343                       

(X_U7C.7)    9.3283                   (X_U7C.8)    9.3283                       

(X_U7C.9)    0.0000                   (X_U7C.a)    7.9594                       

(X_U7C.b)    -.0406                   (X_U8C.6)   -1.5343                       

(X_U8C.7)    9.3268                   (X_U8C.8)    9.3268                       

(X_U8C.9)    0.0000                   (X_U8C.a)    7.9594                       

(X_U8C.b)    -.0406                   (X_U9C.6)   -1.5343                       

(X_U9C.7)    9.3291                   (X_U9C.8)    9.3291                       

(X_U9C.9)    0.0000                   (X_U9C.a)    7.9594                       

(X_U9C.b)    -.0406                   (DESCAZUT)    6.0016                      

(X_U1B.10)    6.6091                  (X_U1B.11)   -7.9605                      

(X_U1B.12)   -7.9626                  (X_U1B.13)    6.5953                      

(X_U1B.14)    6.5960                  (X_U1B.53)    6.5000                      

(X_U1B.54)   -7.1780                  (X_U1B.90)    2.9326                      

(X_U1B.91)   40.0000                  (X_U1B.92)  -40.0000                      

(X_U1B.99)    0.0000                  (X_U2B.10)    6.7477                      

(X_U2B.11)   -7.9605                  (X_U2B.12)   -7.9627                      

(X_U2B.13)    6.7339                  (X_U2B.14)    6.7347                      

(X_U2B.53)    6.5000                  (X_U2B.54)   -7.1780                      

(X_U2B.90)    3.0700                  (X_U2B.91)   40.0000                      

(X_U2B.92)  -40.0000                  (X_U2B.99)    0.0000                      

(X_U3C.10)     .7438                  (X_U3C.11)   -7.9602                      

(X_U3C.12)   -7.9605                  (X_U3C.13)     .7299                      

(X_U3C.14)     .7300                  (X_U3C.53)    6.5000                      

(X_U3C.54)   -7.1780                  (X_U3C.90)     .1355                      

(X_U3C.91)   40.0000                  (X_U3C.92)  -40.0000                      

(X_U3C.99)    0.0000                  (X_U4D.10)    3.6766                      

(X_U4D.11)   -7.9604                  (X_U4D.12)   -7.9615                      

(X_U4D.13)    3.6627                  (X_U4D.14)    3.6631                      

(X_U4D.53)    6.5000                  (X_U4D.54)   -7.1780                      

(X_U4D.90)   -2.9327                  (X_U4D.91)   40.0000                      

(X_U4D.92)  -40.0000                  (X_U4D.99)    0.0000                      

(X_U5C.10)    1.4309                  (X_U5C.11)     .0490                      

(X_U5C.12)     .0316                  (X_U5C.13)    1.4137                      

(X_U5C.14)    1.4198                  (X_U5C.53)    6.5000                      

(X_U5C.54)     .8220                  (X_U5C.90)   40.5670                      

(X_U5C.91)   40.0000                  (X_U5C.92)  -40.0000                      

(X_U5C.99)    4.0000                  (X_U6C.10)    1.4548                      

(X_U6C.11)     .0806                  (X_U6C.12) 16.01E-09                      

(X_U6C.13)    1.4266                  (X_U6C.14)    1.4548                      

(X_U6C.53)    6.5000                  (X_U6C.54)     .8220                      

(X_U6C.90)   40.6120                  (X_U6C.91)   40.0000                      

(X_U6C.92)  -40.0000                  (X_U6C.99)    4.0000                      

(X_U7C.10)    1.4548                  (X_U7C.11)     .0806                      

(X_U7C.12) 46.62E-09                  (X_U7C.13)    1.4266                      

(X_U7C.14)    1.4548                  (X_U7C.53)    6.5000                      

(X_U7C.54)     .8220                  (X_U7C.90)   40.6120                      

(X_U7C.91)   40.0000                  (X_U7C.92)  -40.0000                      

(X_U7C.99)    4.0000                  (X_U8C.10)    1.4548                      

(X_U8C.11)     .0806                  (X_U8C.12) 43.73E-09                      

(X_U8C.13)    1.4266                  (X_U8C.14)    1.4548                      

(X_U8C.53)    6.5000                  (X_U8C.54)     .8220                      

(X_U8C.90)   40.6120                  (X_U8C.91)   40.0000                      

(X_U8C.92)  -40.0000                  (X_U8C.99)    4.0000                      

(X_U9C.10)    1.4548                  (X_U9C.11)     .0806                      

(X_U9C.12) 31.43E-09                  (X_U9C.13)    1.4266                      

(X_U9C.14)    1.4548                  (X_U9C.53)    6.5000                      

(X_U9C.54)     .8220                  (X_U9C.90)   40.6120                      

(X_U9C.91)   40.0000                  (X_U9C.92)  -40.0000                      

(X_U9C.99)    4.0000                  




    VOLTAGE SOURCE CURRENTS
    NAME         CURRENT

    V_V1        -1.371E-01
    V_V2         1.004E-02
    X_U2B.vb    -1.201E-08
    X_U2B.vc     3.606E-13
    X_U2B.ve     1.430E-11
    X_U2B.vlim   3.070E-03
    X_U2B.vlp   -3.693E-11
    X_U2B.vln   -4.307E-11
    X_U9C.vb    -1.534E-05
    X_U9C.vc    -2.045E-02
    X_U9C.ve     6.365E-12
    X_U9C.vlim   4.061E-02
    X_U9C.vlp    1.524E-05
    X_U9C.vln   -8.062E-11
    X_U3C.vb    -1.555E-09
    X_U3C.vc     5.686E-12
    X_U3C.ve     8.976E-12
    X_U3C.vlim   1.355E-04
    X_U3C.vlp   -3.987E-11
    X_U3C.vln   -4.014E-11
    X_U1B.vb    -1.173E-08
    X_U1B.vc     4.992E-13
    X_U1B.ve     1.416E-11
    X_U1B.vlim   2.933E-03
    X_U1B.vlp   -3.707E-11
    X_U1B.vln   -4.294E-11
    X_U8C.vb    -1.534E-05
    X_U8C.vc    -1.868E-02
    X_U8C.ve     6.362E-12
    X_U8C.vlim   4.061E-02
    X_U8C.vlp    1.533E-05
    X_U8C.vln   -8.062E-11
    X_U6C.vb    -1.534E-05
    X_U6C.vc    -2.022E-02
    X_U6C.ve     6.365E-12
    X_U6C.vlim   4.061E-02
    X_U6C.vlp    1.525E-05
    X_U6C.vln   -8.062E-11
    X_U5C.vb    -3.425E-06
    X_U5C.vc    -2.020E-02
    X_U5C.ve     6.364E-12
    X_U5C.vlim   4.057E-02
    X_U5C.vlp    2.611E-06
    X_U5C.vln   -8.057E-11
    X_U7C.vb    -1.534E-05
    X_U7C.vc    -1.978E-02
    X_U7C.ve     6.364E-12
    X_U7C.vlim   4.061E-02
    X_U7C.vlp    1.528E-05
    X_U7C.vln   -8.062E-11
    X_U4D.vb     1.633E-10
    X_U4D.vc     6.365E-12
    X_U4D.ve     8.298E-12
    X_U4D.vlim  -2.933E-03
    X_U4D.vlp   -4.293E-11
    X_U4D.vln   -3.707E-11

    TOTAL POWER DISSIPATION   1.32E+00  WATTS

 NODE   VOLTAGE     NODE   VOLTAGE     NODE   VOLTAGE     NODE   VOLTAGE


(  LED)     .7961  (  VCC)    8.0000  ( -VCC)   -8.0000  (N22369)    6.1424     

(N22401)     .1329 (N22473)    6.0038 (N22571)    3.0674 (N22583)     .1332     

(N22863)    3.0686 (N23003)    7.2976 (N23015)    7.3327 (N23185)    7.2982     

(N23197)    1.5625 (N23367)    7.2962 (N23379)    6.7883 (N23549)    7.2982     

(N23569)     .8319 (N23667)    7.2985 (N23743)    4.4693 (SENZOR)    6.1402     

(N229811)    3.3158                   (N231710)    1.9753                       

(N233530)    3.1075                   (N235350)    1.9814                       

(N236530)    1.9156                   (X_U1B.6)    -.0012                       

(X_U1B.7)    6.1483                   (X_U1B.8)    6.1483                       

(X_U1B.9)    0.0000                   (X_U1B.a)    7.9971                       

(X_U1B.b)    -.0029                   (X_U2B.6)    -.0012                       

(X_U2B.7)    6.2936                   (X_U2B.8)    6.2936                       

(X_U2B.9)    0.0000                   (X_U2B.a)    7.9969                       

(X_U2B.b)    -.0031                   (X_U3C.6)-152.0E-06                       

[...]

(X_U5C.54)     .8220                  (X_U5C.90)   40.5680                      

(X_U5C.91)   40.0000                  (X_U5C.92)  -40.0000                      

(X_U5C.99)    4.0000                  (X_U6C.10)    1.4541                      

(X_U6C.11)     .0806                  (X_U6C.12) 16.01E-09                      

(X_U6C.13)    1.4259                  (X_U6C.14)    1.4541                      

(X_U6C.53)    6.5000                  (X_U6C.54)     .8220                      

(X_U6C.90)   40.6120                  (X_U6C.91)   40.0000                      

(X_U6C.92)  -40.0000                  (X_U6C.99)    4.0000                      

(X_U7C.10)    1.4541                  (X_U7C.11)     .0806                      

(X_U7C.12) 46.62E-09                  (X_U7C.13)    1.4259                      

(X_U7C.14)    1.4541                  (X_U7C.53)    6.5000                      

(X_U7C.54)     .8220                  (X_U7C.90)   40.6120                      

(X_U7C.91)   40.0000                  (X_U7C.92)  -40.0000                      

(X_U7C.99)    4.0000                  (X_U8C.10)    1.4541                      

(X_U8C.11)     .0806                  (X_U8C.12) 43.73E-09                      

(X_U8C.13)    1.4259                  (X_U8C.14)    1.4541                      

(X_U8C.53)    6.5000                  (X_U8C.54)     .8220                      

(X_U8C.90)   40.6120                  (X_U8C.91)   40.0000                      

(X_U8C.92)  -40.0000                  (X_U8C.99)    4.0000                      

(X_U9C.10)    1.4541                  (X_U9C.11)     .0806                      

(X_U9C.12) 31.43E-09                  (X_U9C.13)    1.4259                      

(X_U9C.14)    1.4541                  (X_U9C.53)    6.5000                      

(X_U9C.54)     .8220                  (X_U9C.90)   40.6120                      

(X_U9C.91)   40.0000                  (X_U9C.92)  -40.0000                      

(X_U9C.99)    4.0000                  




    VOLTAGE SOURCE CURRENTS
    NAME         CURRENT

    V_V1        -1.371E-01
    V_V2         1.004E-02
    X_U2B.vb    -1.201E-08
    X_U2B.vc     3.606E-13
    X_U2B.ve     1.430E-11
    X_U2B.vlim   3.070E-03
    X_U2B.vlp   -3.693E-11
    X_U2B.vln   -4.307E-11
    X_U9C.vb    -1.534E-05
    X_U9C.vc    -2.045E-02
    X_U9C.ve     6.365E-12
    X_U9C.vlim   4.061E-02
    X_U9C.vlp    1.524E-05
    X_U9C.vln   -8.062E-11
    X_U3C.vb    -1.553E-09
    X_U3C.vc     5.687E-12
    X_U3C.ve     8.975E-12
    X_U3C.vlim   1.354E-04
    X_U3C.vlp   -3.987E-11
    X_U3C.vln   -4.014E-11
    X_U1B.vb    -1.173E-08
    X_U1B.vc     4.992E-13
    X_U1B.ve     1.416E-11
    X_U1B.vlim   2.933E-03
    X_U1B.vlp   -3.707E-11
    X_U1B.vln   -4.294E-11
    X_U8C.vb    -1.534E-05
    X_U8C.vc    -1.868E-02
    X_U8C.ve     6.362E-12
    X_U8C.vlim   4.061E-02
    X_U8C.vlp    1.533E-05
    X_U8C.vln   -8.062E-11
    X_U6C.vb    -1.534E-05
    X_U6C.vc    -2.022E-02
    X_U6C.ve     6.365E-12
    X_U6C.vlim   4.061E-02
    X_U6C.vlp    1.525E-05
    X_U6C.vln   -8.062E-11
    X_U5C.vb    -3.549E-06
    X_U5C.vc    -2.020E-02
    X_U5C.ve     6.364E-12
    X_U5C.vlim   4.057E-02
    X_U5C.vlp    2.743E-06
    X_U5C.vln   -8.057E-11
    X_U7C.vb    -1.534E-05
    X_U7C.vc    -1.976E-02
    X_U7C.ve     6.364E-12
    X_U7C.vlim   4.061E-02
    X_U7C.vlp    1.528E-05
    X_U7C.vln   -8.062E-11
    X_U4D.vb     1.633E-10
    X_U4D.vc     6.365E-12
    X_U4D.ve     8.298E-12
    X_U4D.vlim  -2.933E-03
    X_U4D.vlp   -4.293E-11
    X_U4D.vln   -3.707E-11

    TOTAL POWER DISSIPATION   1.32E+00  WATTS



Mean Deviation =    1.1269E-03
Sigma          =     .0123

 RUN                    MAX DEVIATION FROM NOMINAL

R_R7 R_R7 R              .0184  (1.50 sigma)  higher  at T =  200.0000E-12
                        (  22.551% change per 1% change in Model Parameter)

R_R6 R_R6 R              .0184  (1.50 sigma)  lower  at T =  200.0000E-12
                        ( -22.551% change per 1% change in Model Parameter)

R_R5 R_R5 R              .0175  (1.43 sigma)  higher  at T =  200.0000E-12
                        (  21.538% change per 1% change in Model Parameter)

R_R4 R_R4 R            8.9648E-03  ( .73 sigma)  higher  at T =  200.0000E-12
                        (  11.007% change per 1% change in Model Parameter)

R_R3 R_R3 R            8.9604E-03  ( .73 sigma)  lower  at T =  200.0000E-12
                        ( -11.002% change per 1% change in Model Parameter)

R_R2 R_R2 R            8.5316E-03  ( .69 sigma)  lower  at T =  200.0000E-12
                        ( -10.475% change per 1% change in Model Parameter)

R_R10 R_R10 R        678.4200E-06  ( .06 sigma)  higher  at T =  200.0000E-12
                        (    .833 % change per 1% change in Model Parameter)

R_R9 R_R9 R          677.9400E-06  ( .06 sigma)  lower  at T =  200.0000E-12
                        (   -.8324% change per 1% change in Model Parameter)

R_R22 R_R22 R           0       (0.00 sigma)  unchanged  at T =    0     
                        (   0     % change per 1% change in Model Parameter)

R_R21 R_R21 R           0       (0.00 sigma)  unchanged  at T =    0     
                        (   0     % change per 1% change in Model Parameter)

R_R17 R_R17 R           0       (0.00 sigma)  unchanged  at T =    0     
                        (   0     % change per 1% change in Model Parameter)

R_R25 R_R25 R           0       (0.00 sigma)  unchanged  at T =    0     
                        (   0     % change per 1% change in Model Parameter)

R_R18 R_R18 R           0       (0.00 sigma)  unchanged  at T =    0     
                        (   0     % change per 1% change in Model Parameter)

R_R20 R_R20 R           0       (0.00 sigma)  unchanged  at T =    0     
                        (   0     % change per 1% change in Model Parameter)

R_R26 R_R26 R           0       (0.00 sigma)  unchanged  at T =    0     
                        (   0     % change per 1% change in Model Parameter)

R_R14 R_R14 R           0       (0.00 sigma)  unchanged  at T =    0     
                        (   0     % change per 1% change in Model Parameter)

R_R23 R_R23 R           0       (0.00 sigma)  unchanged  at T =    0     
                        (   0     % change per 1% change in Model Parameter)

R_R24 R_R24 R           0       (0.00 sigma)  unchanged  at T =    0     
                        (   0     % change per 1% change in Model Parameter)

R_R13 R_R13 R           0       (0.00 sigma)  unchanged  at T =    0     
                        (   0     % change per 1% change in Model Parameter)

R_R15 R_R15 R           0       (0.00 sigma)  unchanged  at T =    0     
                        (   0     % change per 1% change in Model Parameter)

R_R16 R_R16 R           0       (0.00 sigma)  unchanged  at T =    0     
                        (   0     % change per 1% change in Model Parameter)

R_R27 R_R27 R           0       (0.00 sigma)  unchanged  at T =    0     
                        (   0     % change per 1% change in Model Parameter)

R_R19 R_R19 R           0       (0.00 sigma)  unchanged  at T =    0     
                        (   0     % change per 1% change in Model Parameter)


**** 05/21/21 14:02:06 ****** PSpice 17.2.0 (March 2016) ****** ID# 0 ********

 ** Profile: "SCHEMATIC1-monte"  [ D:\Homeworks\An 2 sem 2\Tehnici CAD\Proiect-final\Final-Corect\proiect_cad-PSpiceFiles\SCHEMATIC1\


 ****     INITIAL TRANSIENT SOLUTION       TEMPERATURE =   27.000 DEG C

                      WORST CASE ALL DEVICES

******************************************************************************



 NODE   VOLTAGE     NODE   VOLTAGE     NODE   VOLTAGE     NODE   VOLTAGE


(  LED)    1.6457  (  VCC)    8.0000  ( -VCC)   -8.0000  (N22369)    6.1567     

(N22401)     .2702 (N22473)    5.9737 (N22571)    3.1068 (N22583)     .2705     

(N22863)    3.1080 (N23003)    7.2976 (N23015)    7.3327 (N23185)     .0057     

(N23197)    1.5626 (N23367)    7.2962 (N23379)    6.7883 (N23549)     .0057     

(N23569)     .8319 (N23667)    7.2985 (N23743)    4.4693 (SENZOR)    6.1545     

(N229811)    3.3158                   (N231710)     .0057                       

(N233530)    3.1075                   (N235350)     .0057                       

(N236530)    1.9156                   (X_U1B.6)    -.0012                       

(X_U1B.7)    6.1133                   (X_U1B.8)    6.1133                       

(X_U1B.9)    0.0000                   (X_U1B.a)    7.9972                       

(X_U1B.b)    -.0028                   (X_U2B.6)    -.0012                       

(X_U2B.7)    6.3083                   (X_U2B.8)    6.3083                       

(X_U2B.9)    0.0000                   (X_U2B.a)    7.9969                       

(X_U2B.b)    -.0031                   (X_U3C.6)-314.1E-06                       

(X_U3C.7)    1.6593                   (X_U3C.8)    1.6593                       

(X_U3C.9)    0.0000                   (X_U3C.a)    7.9997                       

(X_U3C.b)-273.4E-06                   (X_U4D.6)-10.36E-06                       

(X_U4D.7)     .1287                   (X_U4D.8)     .1287                       

(X_U4D.9)    0.0000                   (X_U4D.a)     .0028                       

(X_U4D.b)   -7.9972                   (X_U5C.6)    1.5039                       

(X_U5C.7)   -2.0248                   (X_U5C.8)   -2.0248                       

(X_U5C.9)    0.0000                   (X_U5C.a)     .0406                       

(X_U5C.b)     .0406                   (X_U6C.6)    1.2324                       

(X_U6C.7)   -2.0245                   (X_U6C.8)   -2.0245                       

(X_U6C.9)    0.0000                   (X_U6C.a)     .0406                       

(X_U6C.b)     .0406                   (X_U7C.6)   -1.5231                       

(X_U7C.7)    9.3282                   (X_U7C.8)    9.3282                       

(X_U7C.9)    0.0000                   (X_U7C.a)    7.9594                       

(X_U7C.b)    -.0406                   (X_U8C.6)   -1.5231                       

(X_U8C.7)    9.3268                   (X_U8C.8)    9.3268                       

(X_U8C.9)    0.0000                   (X_U8C.a)    7.9594                       

(X_U8C.b)    -.0406                   (X_U9C.6)   -1.5231                       

(X_U9C.7)    9.3291                   (X_U9C.8)    9.3291                       

(X_U9C.9)    0.0000                   (X_U9C.a)    7.9594                       

(X_U9C.b)    -.0406                   (DESCAZUT)    5.9715                      

(X_U1B.10)    6.5790                  (X_U1B.11)   -7.9605                      

(X_U1B.12)   -7.9626                  (X_U1B.13)    6.5652                      

(X_U1B.14)    6.5659                  (X_U1B.53)    6.5000                      

(X_U1B.54)   -7.1780                  (X_U1B.90)    2.8362                      

(X_U1B.91)   40.0000                  (X_U1B.92)  -40.0000                      

(X_U1B.99)    0.0000                  (X_U2B.10)    6.7620                      

(X_U2B.11)   -7.9605                  (X_U2B.12)   -7.9627                      

(X_U2B.13)    6.7482                  (X_U2B.14)    6.7490                      

(X_U2B.53)    6.5000                  (X_U2B.54)   -7.1780                      

(X_U2B.90)    3.0772                  (X_U2B.91)   40.0000                      

(X_U2B.92)  -40.0000                  (X_U2B.99)    0.0000                      

(X_U3C.10)     .8780                  (X_U3C.11)   -7.9602                      

(X_U3C.12)   -7.9605                  (X_U3C.13)     .8641                      

(X_U3C.14)     .8642                  (X_U3C.53)    6.5000                      

(X_U3C.54)   -7.1780                  (X_U3C.90)     .2726                      

(X_U3C.91)   40.0000                  (X_U3C.92)  -40.0000                      

(X_U3C.99)    0.0000                  (X_U4D.10)    3.7145                      

(X_U4D.11)   -7.9604                  (X_U4D.12)   -7.9615                      

(X_U4D.13)    3.7006                  (X_U4D.14)    3.7010                      

(X_U4D.53)    6.5000                  (X_U4D.54)   -7.1780                      

(X_U4D.90)   -2.8364                  (X_U4D.91)   40.0000                      

(X_U4D.92)  -40.0000                  (X_U4D.99)    0.0000                      

(X_U5C.10)    1.4722                  (X_U5C.11) 16.54E-09                      

(X_U5C.12)     .0806                  (X_U5C.13)    1.4722                      

(X_U5C.14)    1.4440                  (X_U5C.53)    6.5000                      

(X_U5C.54)     .8220                  (X_U5C.90)  -40.6100                      

(X_U5C.91)   40.0000                  (X_U5C.92)  -40.0000                      

(X_U5C.99)    4.0000                  (X_U6C.10)    2.1978                      

(X_U6C.11)     .0072                  (X_U6C.12)     .0731                      

(X_U6C.13)    2.1953                  (X_U6C.14)    2.1722                      

(X_U6C.53)    6.5000                  (X_U6C.54)     .8220                      

(X_U6C.90)  -40.6040                  (X_U6C.91)   40.0000                      

(X_U6C.92)  -40.0000                  (X_U6C.99)    4.0000                      

(X_U7C.10)    2.2858                  (X_U7C.11)     .0803                      

(X_U7C.12) 51.03E-09                  (X_U7C.13)    2.2577                      

(X_U7C.14)    2.2858                  (X_U7C.53)    6.5000                      

(X_U7C.54)     .8220                  (X_U7C.90)   40.6120                      

(X_U7C.91)   40.0000                  (X_U7C.92)  -40.0000                      

(X_U7C.99)    4.0000                  (X_U8C.10)    2.2858                      

(X_U8C.11)     .0803                  (X_U8C.12) 48.14E-09                      

(X_U8C.13)    2.2577                  (X_U8C.14)    2.2858                      

(X_U8C.53)    6.5000                  (X_U8C.54)     .8220                      

(X_U8C.90)   40.6120                  (X_U8C.91)   40.0000                      

(X_U8C.92)  -40.0000                  (X_U8C.99)    4.0000                      

(X_U9C.10)    2.2858                  (X_U9C.11)     .0803                      

(X_U9C.12) 35.84E-09                  (X_U9C.13)    2.2577                      

(X_U9C.14)    2.2858                  (X_U9C.53)    6.5000                      

(X_U9C.54)     .8220                  (X_U9C.90)   40.6120                      

(X_U9C.91)   40.0000                  (X_U9C.92)  -40.0000                      

(X_U9C.99)    4.0000                  




    VOLTAGE SOURCE CURRENTS
    NAME         CURRENT

    V_V1        -9.641E-02
    V_V2         9.945E-03
    X_U2B.vb    -1.204E-08
    X_U2B.vc     3.463E-13
    X_U2B.ve     1.432E-11
    X_U2B.vlim   3.077E-03
    X_U2B.vlp   -3.692E-11
    X_U2B.vln   -4.308E-11
    X_U9C.vb    -1.523E-05
    X_U9C.vc    -2.045E-02
    X_U9C.ve     6.365E-12
    X_U9C.vlim   4.061E-02
    X_U9C.vlp    1.512E-05
    X_U9C.vln   -8.062E-11
    X_U3C.vb    -3.141E-09
    X_U3C.vc     4.855E-12
    X_U3C.ve     9.807E-12
    X_U3C.vlim   2.726E-04
    X_U3C.vlp   -3.973E-11
    X_U3C.vln   -4.028E-11
    X_U1B.vb    -1.166E-08
    X_U1B.vc     5.293E-13
    X_U1B.ve     1.413E-11
    X_U1B.vlim   2.836E-03
    X_U1B.vlp   -3.716E-11
    X_U1B.vln   -4.284E-11
    X_U8C.vb    -1.523E-05
    X_U8C.vc    -1.868E-02
    X_U8C.ve     6.362E-12
    X_U8C.vlim   4.061E-02
    X_U8C.vlp    1.521E-05
    X_U8C.vln   -8.062E-11
    X_U6C.vb     1.232E-05
    X_U6C.vc     6.495E-12
    X_U6C.ve    -4.060E-02
    X_U6C.vlim  -4.060E-02
    X_U6C.vlp   -8.060E-11
    X_U6C.vln    1.103E-05
    X_U5C.vb     1.504E-05
    X_U5C.vc     6.495E-12
    X_U5C.ve    -4.061E-02
    X_U5C.vlim  -4.061E-02
    X_U5C.vlp   -8.061E-11
    X_U5C.vln    1.391E-05
    X_U7C.vb    -1.523E-05
    X_U7C.vc    -1.976E-02
    X_U7C.ve     6.364E-12
    X_U7C.vlim   4.061E-02
    X_U7C.vlp    1.516E-05
    X_U7C.vln   -8.062E-11
    X_U4D.vb    -1.036E-10
    X_U4D.vc     6.230E-12
    X_U4D.ve     8.432E-12
    X_U4D.vlim  -2.836E-03
    X_U4D.vlp   -4.284E-11
    X_U4D.vln   -3.717E-11

    TOTAL POWER DISSIPATION   1.00E+00  WATTS


**** 05/21/21 14:02:06 ****** PSpice 17.2.0 (March 2016) ****** ID# 0 ********

 ** Profile: "SCHEMATIC1-monte"  [ D:\Homeworks\An 2 sem 2\Tehnici CAD\Proiect-final\Final-Corect\proiect_cad-PSpiceFiles\SCHEMATIC1\


 ****     UPDATED MODEL PARAMETERS         TEMPERATURE =   27.000 DEG C

                      WORST CASE ALL DEVICES

******************************************************************************



Device       MODEL        PARAMETER    NEW VALUE    
R_R22        R_R22        R               1             (Unchanged)  
R_R7         R_R7         R               1.01          (Increased)  
R_R21        R_R21        R               1             (Unchanged)  
R_R10        R_R10        R               1.01          (Increased)  
R_R17        R_R17        R               1             (Unchanged)  
R_R25        R_R25        R               1             (Unchanged)  
R_R6         R_R6         R                .99          (Decreased)  
R_R18        R_R18        R               1             (Unchanged)  
R_R20        R_R20        R               1             (Unchanged)  
R_R4         R_R4         R               1.01          (Increased)  
R_R26        R_R26        R               1             (Unchanged)  
R_R14        R_R14        R               1             (Unchanged)  
R_R23        R_R23        R               1             (Unchanged)  
R_R24        R_R24        R               1             (Unchanged)  
R_R13        R_R13        R               1             (Unchanged)  
R_R15        R_R15        R               1             (Unchanged)  
R_R2         R_R2         R                .99          (Decreased)  
R_R16        R_R16        R               1             (Unchanged)  
R_R27        R_R27        R               1             (Unchanged)  
R_R5         R_R5         R               1.01          (Increased)  
R_R19        R_R19        R               1             (Unchanged)  
R_R3         R_R3         R                .99          (Decreased)  
R_R9         R_R9         R                .99          (Decreased)  
    

**** 05/21/21 14:02:06 ****** PSpice 17.2.0 (March 2016) ****** ID# 0 ********

 ** Profile: "SCHEMATIC1-monte"  [ D:\Homeworks\An 2 sem 2\Tehnici CAD\Proiect-final\Final-Corect\proiect_cad-PSpiceFiles\SCHEMATIC1\


 ****     SORTED DEVIATIONS OF V(LED)      TEMPERATURE =   27.000 DEG C

                      WORST CASE SUMMARY

******************************************************************************





Mean Deviation =     .8312
Sigma          =    0     

 RUN                    MAX DEVIATION FROM NOMINAL

WORST CASE ALL DEVICES
                         .8312  higher  at T =  200.0000E-12
                        ( 202.06% of Nominal)



          JOB CONCLUDED

**** 05/21/21 14:02:06 ****** PSpice 17.2.0 (March 2016) ****** ID# 0 ********

 ** Profile: "SCHEMATIC1-monte"  [ D:\Homeworks\An 2 sem 2\Tehnici CAD\Proiect-final\Final-Corect\proiect_cad-PSpiceFiles\SCHEMATIC1\


 ****     JOB STATISTICS SUMMARY


******************************************************************************



  Total job time (using Solver 1)   =         .38
